data/caseGO13R-15.raw
0,100.0,33,0,0,60.0
GRID OPTIMIZATION COMPETITION
INPUT DATA FILES ARE RAW ROP INL CON
1,'            ',115.0,1,1,1,1,1.0530749,-4.3870745,1.1,0.9,1.1,0.9
2,'            ',115.0,1,1,1,1,1.0521019,-5.3279105,1.1,0.9,1.1,0.9
3,'            ',115.0,1,1,1,1,1.0424134,-0.052502326,1.1,0.9,1.1,0.9
4,'            ',115.0,1,1,1,1,1.0454168,-7.2595797,1.1,0.9,1.1,0.9
5,'            ',115.0,1,1,1,1,1.0454432,-7.2563798,1.1,0.9,1.1,0.9
6,'            ',115.0,1,1,1,1,1.0458315,1.4255954,1.1,0.9,1.1,0.9
7,'            ',115.0,1,1,1,1,1.0472582,1.4308514,1.1,0.9,1.1,0.9
8,'            ',115.0,1,1,1,1,1.0565223,-11.239932,1.1,0.9,1.1,0.9
9,'            ',115.0,1,1,1,1,1.0543442,-10.805623,1.1,0.9,1.1,0.9
10,'            ',115.0,1,1,1,1,1.0505774,-4.2935645,1.1,0.9,1.1,0.9
11,'            ',115.0,1,1,1,1,1.0547564,-2.4679398,1.1,0.9,1.1,0.9
12,'            ',230.0,1,1,1,1,1.0487217,-0.79492163,1.1,0.9,1.1,0.9
13,'            ',115.0,1,1,1,1,1.0562292,-1.5453803,1.1,0.9,1.1,0.9
14,'            ',230.0,1,1,1,1,1.0486429,-0.80250018,1.1,0.9,1.1,0.9
15,'            ',230.0,1,1,1,1,1.0489581,-0.77503424,1.1,0.9,1.1,0.9
16,'            ',230.0,1,1,1,1,1.0649073,-9.5456708,1.1,0.9,1.1,0.9
17,'            ',115.0,1,1,1,1,1.0662996,-9.9887409,1.1,0.9,1.1,0.9
18,'            ',230.0,1,1,1,1,1.064838,-9.5558263,1.1,0.9,1.1,0.9
19,'            ',230.0,1,1,1,1,1.0649625,-9.5247019,1.1,0.9,1.1,0.9
20,'            ',230.0,1,1,1,1,1.0529495,-8.227625,1.1,0.9,1.1,0.9
21,'            ',115.0,1,1,1,1,1.0639287,-9.3974415,1.1,0.9,1.1,0.9
22,'            ',230.0,1,1,1,1,1.0534876,-8.1994507,1.1,0.9,1.1,0.9
23,'            ',230.0,1,1,1,1,1.0529495,-8.227625,1.1,0.9,1.1,0.9
24,'            ',115.0,1,1,1,1,1.0407765,-0.31088217,1.1,0.9,1.1,0.9
25,'            ',115.0,1,1,1,1,1.0427794,-0.40331114,1.1,0.9,1.1,0.9
26,'            ',115.0,1,1,1,1,1.0476223,3.1213491,1.1,0.9,1.1,0.9
27,'            ',500.0,1,1,1,1,1.0463241,-1.2945411,1.1,0.9,1.1,0.9
28,'            ',230.0,1,1,1,1,1.0516735,0.018289738,1.1,0.9,1.1,0.9
29,'            ',115.0,1,1,1,1,1.0521518,0.17973381,1.1,0.9,1.1,0.9
30,'            ',500.0,1,1,1,1,1.0460321,-1.3183849,1.1,0.9,1.1,0.9
31,'            ',230.0,1,1,1,1,1.0511121,0.22575919,1.1,0.9,1.1,0.9
32,'            ',115.0,1,1,1,1,1.0407798,-0.18058915,1.1,0.9,1.1,0.9
33,'            ',115.0,1,1,1,1,1.0406312,-0.19970343,1.1,0.9,1.1,0.9
34,'            ',115.0,1,1,1,1,1.0504131,-11.880415,1.1,0.9,1.1,0.9
35,'            ',115.0,1,1,1,1,1.0573414,-8.884628,1.1,0.9,1.1,0.9
36,'            ',115.0,1,1,1,1,1.057292,-8.8897069,1.1,0.9,1.1,0.9
37,'            ',230.0,1,1,1,1,1.0545392,-7.3196593,1.1,0.9,1.1,0.9
38,'            ',115.0,1,1,1,1,1.0648745,-8.6584455,1.1,0.9,1.1,0.9
39,'            ',230.0,1,1,1,1,1.0543632,-7.3315041,1.1,0.9,1.1,0.9
40,'            ',115.0,1,1,1,1,1.0460086,-1.7311634,1.1,0.9,1.1,0.9
41,'            ',115.0,1,1,1,1,1.0413631,-0.13320299,1.1,0.9,1.1,0.9
42,'            ',115.0,1,1,1,1,1.0459375,-1.3624903,1.1,0.9,1.1,0.9
43,'            ',115.0,1,1,1,1,1.0424549,0.046505758,1.1,0.9,1.1,0.9
44,'            ',115.0,1,1,1,1,1.0481839,0.079398356,1.1,0.9,1.1,0.9
45,'            ',115.0,1,1,1,1,1.0458245,0.15046126,1.1,0.9,1.1,0.9
46,'            ',115.0,1,1,1,1,1.0572451,-10.649494,1.1,0.9,1.1,0.9
47,'            ',115.0,1,1,1,1,1.0355,-8.0294807,1.1,0.9,1.1,0.9
48,'            ',115.0,1,1,1,1,1.0364122,-7.671125,1.1,0.9,1.1,0.9
49,'            ',115.0,1,1,1,1,1.0394852,1.688666,1.1,0.9,1.1,0.9
50,'            ',115.0,1,1,1,1,1.0395936,1.688316,1.1,0.9,1.1,0.9
51,'            ',115.0,1,1,1,1,1.0508055,-2.3660945,1.1,0.9,1.1,0.9
52,'            ',115.0,1,1,1,1,1.0543732,-2.2311994,1.1,0.9,1.1,0.9
53,'            ',115.0,1,1,1,1,1.0544974,-2.2185976,1.1,0.9,1.1,0.9
54,'            ',115.0,1,1,1,1,1.049562,-2.2234736,1.1,0.9,1.1,0.9
55,'            ',115.0,1,1,1,1,1.0494695,-2.2363461,1.1,0.9,1.1,0.9
56,'            ',115.0,1,1,1,1,1.0554941,-11.597678,1.1,0.9,1.1,0.9
57,'            ',115.0,1,1,1,1,1.0554596,-11.602274,1.1,0.9,1.1,0.9
58,'            ',115.0,1,1,1,1,1.0529382,-2.2440295,1.1,0.9,1.1,0.9
59,'            ',115.0,1,1,1,1,1.0550068,-2.2264841,1.1,0.9,1.1,0.9
60,'            ',115.0,1,1,1,1,1.0514295,-1.8352722,1.1,0.9,1.1,0.9
61,'            ',115.0,1,1,1,1,1.0513914,-1.8409515,1.1,0.9,1.1,0.9
62,'            ',115.0,1,1,1,1,1.0438894,-8.9268055,1.1,0.9,1.1,0.9
63,'            ',230.0,1,1,1,1,1.0401142,-0.46488412,1.1,0.9,1.1,0.9
64,'            ',115.0,1,1,1,1,1.0602347,-1.9114082,1.1,0.9,1.1,0.9
65,'            ',230.0,1,1,1,1,1.041275,-0.41343804,1.1,0.9,1.1,0.9
66,'            ',230.0,1,1,1,1,1.0398864,-0.49220858,1.1,0.9,1.1,0.9
67,'            ',115.0,1,1,1,1,1.0548668,-1.7452302,1.1,0.9,1.1,0.9
68,'            ',115.0,1,1,1,1,1.0626714,-11.558014,1.1,0.9,1.1,0.9
69,'            ',115.0,1,1,1,1,1.0626116,-11.564345,1.1,0.9,1.1,0.9
70,'            ',115.0,1,1,1,1,1.0635067,-11.227584,1.1,0.9,1.1,0.9
71,'            ',115.0,1,1,1,1,1.0424138,-5.5902095,1.1,0.9,1.1,0.9
72,'            ',230.0,1,1,1,1,1.0459869,-4.1344085,1.1,0.9,1.1,0.9
73,'            ',115.0,1,1,1,1,1.0465048,-4.4908756,1.1,0.9,1.1,0.9
74,'            ',230.0,1,1,1,1,1.0459508,-4.1420905,1.1,0.9,1.1,0.9
75,'            ',230.0,1,1,1,1,1.0465455,-4.1074792,1.1,0.9,1.1,0.9
76,'            ',115.0,1,1,1,1,1.0507983,-2.0439798,1.1,0.9,1.1,0.9
77,'            ',115.0,1,1,1,1,1.0486397,-1.5798779,1.1,0.9,1.1,0.9
78,'            ',115.0,1,1,1,1,1.0614585,-12.894705,1.1,0.9,1.1,0.9
79,'            ',230.0,1,1,1,1,1.0456243,-8.2564975,1.1,0.9,1.1,0.9
80,'            ',115.0,1,1,1,1,1.060346,-8.9705343,1.1,0.9,1.1,0.9
81,'            ',230.0,1,1,1,1,1.0464615,-8.2120785,1.1,0.9,1.1,0.9
82,'            ',230.0,1,1,1,1,1.045394,-8.2937485,1.1,0.9,1.1,0.9
83,'            ',115.0,1,1,1,1,1.0473767,-9.1921781,1.1,0.9,1.1,0.9
84,'            ',115.0,1,1,1,1,1.0471697,-9.2090598,1.1,0.9,1.1,0.9
85,'            ',115.0,1,1,1,1,1.0475624,-9.1748839,1.1,0.9,1.1,0.9
86,'            ',115.0,1,1,1,1,1.0481489,1.7267135,1.1,0.9,1.1,0.9
87,'            ',115.0,1,1,1,1,1.0475237,-9.0992615,1.1,0.9,1.1,0.9
88,'            ',115.0,1,1,1,1,1.0472512,-9.1118192,1.1,0.9,1.1,0.9
89,'            ',115.0,1,1,1,1,1.0465145,-9.2636256,1.1,0.9,1.1,0.9
90,'            ',115.0,1,1,1,1,1.0463663,-9.2757718,1.1,0.9,1.1,0.9
91,'            ',500.0,1,1,1,1,1.0517401,-7.452641,1.1,0.9,1.1,0.9
92,'            ',230.0,1,1,1,1,1.0545588,-7.6198339,1.1,0.9,1.1,0.9
93,'            ',115.0,1,1,1,1,1.0587128,-8.4652475,1.1,0.9,1.1,0.9
94,'            ',500.0,1,1,1,1,1.0514951,-7.4774489,1.1,0.9,1.1,0.9
95,'            ',500.0,1,1,1,1,1.0543335,-7.4310821,1.1,0.9,1.1,0.9
96,'            ',115.0,1,1,1,1,1.0579616,-11.58404,1.1,0.9,1.1,0.9
97,'            ',115.0,1,1,1,1,1.0592197,-12.524478,1.1,0.9,1.1,0.9
98,'            ',115.0,1,1,1,1,1.0522035,-13.248521,1.1,0.9,1.1,0.9
99,'            ',115.0,1,1,1,1,1.0573542,-12.557413,1.1,0.9,1.1,0.9
100,'            ',115.0,1,1,1,1,1.057286,-12.565212,1.1,0.9,1.1,0.9
101,'            ',115.0,1,1,1,1,1.0553392,-8.9872243,1.1,0.9,1.1,0.9
102,'            ',115.0,1,1,1,1,1.0566352,-8.9939185,1.1,0.9,1.1,0.9
103,'            ',115.0,1,1,1,1,1.0565619,-9.0058367,1.1,0.9,1.1,0.9
104,'            ',115.0,1,1,1,1,1.0594244,-10.975263,1.1,0.9,1.1,0.9
105,'            ',115.0,1,1,1,1,1.0576693,-11.994795,1.1,0.9,1.1,0.9
106,'            ',115.0,1,1,1,1,1.0572926,-12.016762,1.1,0.9,1.1,0.9
107,'            ',230.0,1,1,1,1,1.0395922,-10.474328,1.1,0.9,1.1,0.9
108,'            ',115.0,1,1,1,1,1.061602,-11.595069,1.1,0.9,1.1,0.9
109,'            ',230.0,1,1,1,1,1.0393983,-10.503787,1.1,0.9,1.1,0.9
110,'            ',230.0,1,1,1,1,1.0406847,-10.424328,1.1,0.9,1.1,0.9
111,'            ',115.0,1,1,1,1,1.0588525,-11.753449,1.1,0.9,1.1,0.9
112,'            ',115.0,1,1,1,1,1.0587374,-11.762603,1.1,0.9,1.1,0.9
113,'            ',115.0,1,1,1,1,1.0556973,-11.546322,1.1,0.9,1.1,0.9
114,'            ',115.0,1,1,1,1,1.0467372,-8.9490324,1.1,0.9,1.1,0.9
115,'            ',230.0,1,1,1,1,1.0531289,-7.4587146,1.1,0.9,1.1,0.9
116,'            ',115.0,1,1,1,1,1.0601067,-8.7935515,1.1,0.9,1.1,0.9
117,'            ',230.0,1,1,1,1,1.0534624,-7.4369814,1.1,0.9,1.1,0.9
118,'            ',230.0,1,1,1,1,1.0531289,-7.4587146,1.1,0.9,1.1,0.9
119,'            ',115.0,1,1,1,1,1.0430319,-9.2354074,1.1,0.9,1.1,0.9
120,'            ',115.0,1,1,1,1,1.0403173,-8.9045911,1.1,0.9,1.1,0.9
121,'            ',115.0,1,1,1,1,1.0401725,-8.9165091,1.1,0.9,1.1,0.9
122,'            ',115.0,1,1,1,1,1.0548372,-0.44404821,1.1,0.9,1.1,0.9
123,'            ',115.0,1,1,1,1,1.0452605,-7.2382343,1.1,0.9,1.1,0.9
124,'            ',115.0,1,1,1,1,1.063012,-12.216971,1.1,0.9,1.1,0.9
125,'            ',115.0,1,1,1,1,1.0522117,-11.71082,1.1,0.9,1.1,0.9
126,'            ',115.0,1,1,1,1,1.054267,-9.1395248,1.1,0.9,1.1,0.9
127,'            ',115.0,1,1,1,1,1.0552562,-9.3212042,1.1,0.9,1.1,0.9
128,'            ',115.0,1,1,1,1,1.0552895,-9.3157196,1.1,0.9,1.1,0.9
129,'            ',115.0,1,1,1,1,1.0607273,-11.830083,1.1,0.9,1.1,0.9
130,'            ',230.0,1,1,1,1,1.0478206,-10.880958,1.1,0.9,1.1,0.9
131,'            ',115.0,1,1,1,1,1.0662201,-12.182985,1.1,0.9,1.1,0.9
132,'            ',230.0,1,1,1,1,1.0486746,-10.866038,1.1,0.9,1.1,0.9
133,'            ',230.0,1,1,1,1,1.0350329,-13.082148,1.1,0.9,1.1,0.9
134,'            ',115.0,1,1,1,1,1.0635295,-12.666064,1.1,0.9,1.1,0.9
135,'            ',230.0,1,1,1,1,1.0349212,-13.096131,1.1,0.9,1.1,0.9
136,'            ',115.0,1,1,1,1,1.059288,-12.336166,1.1,0.9,1.1,0.9
137,'            ',115.0,1,1,1,1,1.0566671,-12.509786,1.1,0.9,1.1,0.9
138,'            ',115.0,1,1,1,1,1.0567459,-12.502804,1.1,0.9,1.1,0.9
139,'            ',115.0,1,1,1,1,1.0531656,-13.57041,1.1,0.9,1.1,0.9
140,'            ',115.0,1,1,1,1,1.059368,-11.823339,1.1,0.9,1.1,0.9
141,'            ',115.0,1,1,1,1,1.0529923,-8.3308908,1.1,0.9,1.1,0.9
142,'            ',115.0,1,1,1,1,1.0495894,0.77718896,1.1,0.9,1.1,0.9
143,'            ',115.0,1,1,1,1,1.0460095,0.91939076,1.1,0.9,1.1,0.9
144,'            ',115.0,1,1,1,1,1.0457665,0.44137927,1.1,0.9,1.1,0.9
145,'            ',115.0,1,1,1,1,1.0457204,0.4331154,1.1,0.9,1.1,0.9
146,'            ',115.0,1,1,1,1,1.0458136,0.45019819,1.1,0.9,1.1,0.9
147,'            ',115.0,1,1,1,1,1.0565521,-9.6694961,1.1,0.9,1.1,0.9
148,'            ',115.0,1,1,1,1,1.0682159,-11.18568,1.1,0.9,1.1,0.9
149,'            ',115.0,1,1,1,1,1.0683173,-11.177691,1.1,0.9,1.1,0.9
150,'            ',115.0,1,1,1,1,1.0615618,-12.312498,1.1,0.9,1.1,0.9
151,'            ',115.0,1,1,1,1,1.0556441,-12.243486,1.1,0.9,1.1,0.9
152,'            ',115.0,1,1,1,1,1.0469246,-5.6589321,1.1,0.9,1.1,0.9
153,'            ',115.0,1,1,1,1,1.0382516,-4.9185512,1.1,0.9,1.1,0.9
154,'            ',115.0,1,1,1,1,1.0572442,-9.8297197,1.1,0.9,1.1,0.9
155,'            ',115.0,1,1,1,1,1.052918,-13.785647,1.1,0.9,1.1,0.9
156,'            ',115.0,1,1,1,1,1.0529618,-13.782134,1.1,0.9,1.1,0.9
157,'            ',115.0,1,1,1,1,1.0621403,-12.687438,1.1,0.9,1.1,0.9
158,'            ',115.0,1,1,1,1,1.054399,-6.2468428,1.1,0.9,1.1,0.9
159,'            ',115.0,1,1,1,1,1.0652918,-11.205168,1.1,0.9,1.1,0.9
160,'            ',230.0,1,1,1,1,1.0584688,-11.43751,1.1,0.9,1.1,0.9
161,'            ',115.0,1,1,1,1,1.0645697,-11.458038,1.1,0.9,1.1,0.9
162,'            ',230.0,1,1,1,1,1.0583589,-11.449105,1.1,0.9,1.1,0.9
163,'            ',230.0,1,1,1,1,1.0585921,-11.427838,1.1,0.9,1.1,0.9
164,'            ',115.0,1,1,1,1,1.0642301,-11.4625,1.1,0.9,1.1,0.9
165,'            ',115.0,1,1,1,1,1.0181029,-15.770537,1.1,0.9,1.1,0.9
166,'            ',115.0,1,1,1,1,1.0181653,-15.761673,1.1,0.9,1.1,0.9
167,'            ',115.0,1,1,1,1,1.0181029,-15.770537,1.1,0.9,1.1,0.9
168,'            ',115.0,1,1,1,1,1.0194284,-15.258274,1.1,0.9,1.1,0.9
169,'            ',115.0,1,1,1,1,1.0213871,-16.19343,1.1,0.9,1.1,0.9
170,'            ',115.0,1,1,1,1,1.0193572,-16.138345,1.1,0.9,1.1,0.9
171,'            ',115.0,1,1,1,1,1.0192713,-16.146903,1.1,0.9,1.1,0.9
172,'            ',230.0,1,1,1,1,1.0063981,-12.28385,1.1,0.9,1.1,0.9
173,'            ',115.0,1,1,1,1,1.0176725,-14.668675,1.1,0.9,1.1,0.9
174,'            ',230.0,1,1,1,1,1.0057769,-12.286343,1.1,0.9,1.1,0.9
175,'            ',115.0,1,1,1,1,1.0463744,-4.3478245,1.1,0.9,1.1,0.9
176,'            ',115.0,1,1,1,1,1.0436104,-3.0675556,1.1,0.9,1.1,0.9
177,'            ',115.0,1,1,1,1,1.0435689,-3.0716512,1.1,0.9,1.1,0.9
178,'            ',230.0,1,1,1,1,1.0501863,-13.534169,1.1,0.9,1.1,0.9
179,'            ',115.0,1,1,1,1,1.0505452,-13.649287,1.1,0.9,1.1,0.9
180,'            ',230.0,1,1,1,1,1.0501886,-13.531522,1.1,0.9,1.1,0.9
181,'            ',230.0,1,1,1,1,1.0501863,-13.534169,1.1,0.9,1.1,0.9
182,'            ',115.0,1,1,1,1,0.99497525,-8.7771431,1.1,0.9,1.1,0.9
183,'            ',115.0,1,1,1,1,0.995,-8.7722736,1.1,0.9,1.1,0.9
184,'            ',115.0,1,1,1,1,1.0252515,-11.522123,1.1,0.9,1.1,0.9
185,'            ',115.0,1,1,1,1,1.0198008,-8.2711304,1.1,0.9,1.1,0.9
186,'            ',115.0,1,1,1,1,1.0165504,-8.2394401,1.1,0.9,1.1,0.9
187,'            ',115.0,1,1,1,1,1.0166154,-8.392207,1.1,0.9,1.1,0.9
188,'            ',115.0,1,1,1,1,1.0165218,-8.4002178,1.1,0.9,1.1,0.9
189,'            ',115.0,1,1,1,1,1.0621588,-12.573174,1.1,0.9,1.1,0.9
190,'            ',115.0,1,1,1,1,1.0525396,-13.129588,1.1,0.9,1.1,0.9
191,'            ',115.0,1,1,1,1,1.0445044,-6.6679646,1.1,0.9,1.1,0.9
192,'            ',115.0,1,1,1,1,1.0072793,-8.2171305,1.1,0.9,1.1,0.9
193,'            ',115.0,1,1,1,1,0.995,-8.0362322,1.1,0.9,1.1,0.9
194,'            ',230.0,1,1,1,1,1.0365,-7.1643109,1.1,0.9,1.1,0.9
195,'            ',115.0,1,1,1,1,1.0227895,-8.0543247,1.1,0.9,1.1,0.9
196,'            ',230.0,1,1,1,1,1.0359603,-7.0671963,1.1,0.9,1.1,0.9
197,'            ',115.0,1,1,1,1,1.0015264,-8.3631038,1.1,0.9,1.1,0.9
198,'            ',230.0,1,1,1,1,1.0127608,-7.3118838,1.1,0.9,1.1,0.9
199,'            ',115.0,1,1,1,1,1.0086873,-8.0353775,1.1,0.9,1.1,0.9
200,'            ',230.0,1,1,1,1,1.0125901,-7.32697,1.1,0.9,1.1,0.9
...
0 / END OF BUS DATA BEGIN LOAD DATA
1,'1',1,1,1,12.399,6.994,0.0,0.0,0.0,0.0,1,1,0
2,'1',1,1,1,7.092,3.445,0.0,0.0,0.0,0.0,1,1,0
3,'1',1,1,1,9.814,0.914,0.0,0.0,0.0,0.0,1,1,0
4,'1',1,1,1,5.816,1.399,0.0,0.0,0.0,0.0,1,1,0
6,'1',1,1,1,6.832,3.135,0.0,0.0,0.0,0.0,1,1,0
7,'1',1,1,1,13.658,2.442,0.0,0.0,0.0,0.0,1,1,0
8,'1',1,1,1,16.001,1.023,0.0,0.0,0.0,0.0,1,1,0
9,'1',1,1,1,13.134,5.768,0.0,0.0,0.0,0.0,1,1,0
10,'1',1,1,1,23.146,5.649,0.0,0.0,0.0,0.0,1,1,0
11,'1',1,1,1,7.587,0.444,0.0,0.0,0.0,0.0,1,1,0
14,'1',1,1,1,15.166,4.478,0.0,0.0,0.0,0.0,1,1,0
18,'1',1,1,1,19.59,1.622,0.0,0.0,0.0,0.0,1,1,0
21,'1',1,1,1,37.934,3.046,0.0,0.0,0.0,0.0,1,1,0
24,'1',1,1,1,15.97,6.06,0.0,0.0,0.0,0.0,1,1,0
25,'1',1,1,1,16.389,5.531,0.0,0.0,0.0,0.0,1,1,0
26,'1',1,1,1,6.628,0.94,0.0,0.0,0.0,0.0,1,1,0
30,'1',1,1,1,49.681,15.967,0.0,0.0,0.0,0.0,1,1,0
33,'1',1,1,1,32.496,7.445,0.0,0.0,0.0,0.0,1,1,0
34,'1',1,1,1,12.627,7.798,0.0,0.0,0.0,0.0,1,1,0
36,'1',1,1,1,9.246,2.628,0.0,0.0,0.0,0.0,1,1,0
39,'1',1,1,1,21.832,11.104,0.0,0.0,0.0,0.0,1,1,0
40,'1',1,1,1,16.155,2.985,0.0,0.0,0.0,0.0,1,1,0
41,'1',1,1,1,15.023,5.015,0.0,0.0,0.0,0.0,1,1,0
42,'1',1,1,1,16.155,1.078,0.0,0.0,0.0,0.0,1,1,0
43,'1',1,1,1,18.58,7.251,0.0,0.0,0.0,0.0,1,1,0
44,'1',1,1,1,14.868,3.919,0.0,0.0,0.0,0.0,1,1,0
45,'1',1,1,1,11.73,2.821,0.0,0.0,0.0,0.0,1,1,0
46,'1',1,1,1,16.497,3.701,0.0,0.0,0.0,0.0,1,1,0
47,'1',1,1,1,8.186,1.338,0.0,0.0,0.0,0.0,1,1,0
48,'1',1,1,1,12.342,2.223,0.0,0.0,0.0,0.0,1,1,0
49,'1',1,1,1,1.454,0.51,0.0,0.0,0.0,0.0,1,1,0
51,'1',1,1,1,12.64,3.396,0.0,0.0,0.0,0.0,1,1,0
52,'1',1,1,1,25.282,7.555,0.0,0.0,0.0,0.0,1,1,0
55,'1',1,1,1,24.113,3.011,0.0,0.0,0.0,0.0,1,1,0
57,'1',1,1,1,7.874,1.614,0.0,0.0,0.0,0.0,1,1,0
58,'1',1,1,1,19.718,11.481,0.0,0.0,0.0,0.0,1,1,0
59,'1',1,1,1,18.592,2.089,0.0,0.0,0.0,0.0,1,1,0
60,'1',1,1,1,10.67,5.642,0.0,0.0,0.0,0.0,1,1,0
61,'1',1,1,1,10.67,1.763,0.0,0.0,0.0,0.0,1,1,0
62,'1',1,1,1,24.864,4.4,0.0,0.0,0.0,0.0,1,1,0
66,'1',1,1,1,46.627,8.352,0.0,0.0,0.0,0.0,1,1,0
67,'1',1,1,1,13.209,1.45,0.0,0.0,0.0,0.0,1,1,0
69,'1',1,1,1,12.73,2.929,0.0,0.0,0.0,0.0,1,1,0
70,'1',1,1,1,15.099,5.036,0.0,0.0,0.0,0.0,1,1,0
71,'1',1,1,1,6.875,1.808,0.0,0.0,0.0,0.0,1,1,0
74,'1',1,1,1,13.583,0.595,0.0,0.0,0.0,0.0,1,1,0
76,'1',1,1,1,7.886,1.398,0.0,0.0,0.0,0.0,1,1,0
77,'1',1,1,1,23.083,0.3,0.0,0.0,0.0,0.0,1,1,0
78,'1',1,1,1,4.087,0.702,0.0,0.0,0.0,0.0,1,1,0
82,'1',1,1,1,61.024,5.348,0.0,0.0,0.0,0.0,1,1,0
84,'1',1,1,1,32.001,11.448,0.0,0.0,0.0,0.0,1,1,0
86,'1',1,1,1,3.916,0.947,0.0,0.0,0.0,0.0,1,1,0
88,'1',1,1,1,27.089,20.589,0.0,0.0,0.0,0.0,1,1,0
90,'1',1,1,1,24.781,8.558,0.0,0.0,0.0,0.0,1,1,0
94,'1',1,1,1,43.098,14.154,0.0,0.0,0.0,0.0,1,1,0
96,'1',1,1,1,5.58,2.269,0.0,0.0,0.0,0.0,1,1,0
97,'1',1,1,1,8.219,2.458,0.0,0.0,0.0,0.0,1,1,0
98,'1',1,1,1,18.091,6.8,0.0,0.0,0.0,0.0,1,1,0
100,'1',1,1,1,14.973,3.661,0.0,0.0,0.0,0.0,1,1,0
101,'1',1,1,1,10.72,1.494,0.0,0.0,0.0,0.0,1,1,0
103,'1',1,1,1,20.04,2.977,0.0,0.0,0.0,0.0,1,1,0
104,'1',1,1,1,37.11,3.983,0.0,0.0,0.0,0.0,1,1,0
106,'1',1,1,1,44.5,24.023,0.0,0.0,0.0,0.0,1,1,0
109,'1',1,1,1,56.069,7.099,0.0,0.0,0.0,0.0,1,1,0
111,'1',1,1,1,8.02,2.137,0.0,0.0,0.0,0.0,1,1,0
112,'1',1,1,1,18.548,7.293,0.0,0.0,0.0,0.0,1,1,0
113,'1',1,1,1,58.677,17.829,0.0,0.0,0.0,0.0,1,1,0
114,'1',1,1,1,46.703,16.882,0.0,0.0,0.0,0.0,1,1,0
116,'1',1,1,1,45.161,9.412,0.0,0.0,0.0,0.0,1,1,0
119,'1',1,1,1,13.287,6.245,0.0,0.0,0.0,0.0,1,1,0
121,'1',1,1,1,20.552,8.855,0.0,0.0,0.0,0.0,1,1,0
122,'1',1,1,1,6.509,1.032,0.0,0.0,0.0,0.0,1,1,0
123,'1',1,1,1,4.928,1.453,0.0,0.0,0.0,0.0,1,1,0
124,'1',1,1,1,23.862,6.12,0.0,0.0,0.0,0.0,1,1,0
125,'1',1,1,1,38.596,13.398,0.0,0.0,0.0,0.0,1,1,0
126,'1',1,1,1,17.526,6.319,0.0,0.0,0.0,0.0,1,1,0
127,'1',1,1,1,10.219,1.372,0.0,0.0,0.0,0.0,1,1,0
129,'1',1,1,1,4.401,4.877,0.0,0.0,0.0,0.0,1,1,0
131,'1',1,1,1,40.865,8.937,0.0,0.0,0.0,0.0,1,1,0
135,'1',1,1,1,26.025,4.558,0.0,0.0,0.0,0.0,1,1,0
136,'1',1,1,1,14.314,3.222,0.0,0.0,0.0,0.0,1,1,0
137,'1',1,1,1,12.299,3.968,0.0,0.0,0.0,0.0,1,1,0
139,'1',1,1,1,13.316,4.187,0.0,0.0,0.0,0.0,1,1,0
140,'1',1,1,1,9.374,5.343,0.0,0.0,0.0,0.0,1,1,0
141,'1',1,1,1,10.174,7.172,0.0,0.0,0.0,0.0,1,1,0
142,'1',1,1,1,5.455,4.088,0.0,0.0,0.0,0.0,1,1,0
143,'1',1,1,1,13.814,2.233,0.0,0.0,0.0,0.0,1,1,0
145,'1',1,1,1,15.155,1.267,0.0,0.0,0.0,0.0,1,1,0
147,'1',1,1,1,6.343,0.817,0.0,0.0,0.0,0.0,1,1,0
148,'1',1,1,1,16.253,5.656,0.0,0.0,0.0,0.0,1,1,0
150,'1',1,1,1,3.388,0.29,0.0,0.0,0.0,0.0,1,1,0
151,'1',1,1,1,10.037,2.13,0.0,0.0,0.0,0.0,1,1,0
152,'1',1,1,1,10.913,6.777,0.0,0.0,0.0,0.0,1,1,0
153,'1',1,1,1,6.949,1.631,0.0,0.0,0.0,0.0,1,1,0
154,'1',1,1,1,4.471,1.749,0.0,0.0,0.0,0.0,1,1,0
155,'1',1,1,1,6.813,2.854,0.0,0.0,0.0,0.0,1,1,0
157,'1',1,1,1,6.724,1.066,0.0,0.0,0.0,0.0,1,1,0
158,'1',1,1,1,4.837,1.999,0.0,0.0,0.0,0.0,1,1,0
159,'1',1,1,1,10.19,4.147,0.0,0.0,0.0,0.0,1,1,0
162,'1',1,1,1,20.147,6.217,0.0,0.0,0.0,0.0,1,1,0
164,'1',1,1,1,9.831,2.69,0.0,0.0,0.0,0.0,1,1,0
165,'1',1,1,1,14.794,1.837,0.0,0.0,0.0,0.0,1,1,0
168,'1',1,1,1,14.512,4.94,0.0,0.0,0.0,0.0,1,1,0
169,'1',1,1,1,14.512,4.498,0.0,0.0,0.0,0.0,1,1,0
171,'1',1,1,1,14.7,4.753,0.0,0.0,0.0,0.0,1,1,0
174,'1',1,1,1,14.512,4.866,0.0,0.0,0.0,0.0,1,1,0
175,'1',1,1,1,18.604,5.153,0.0,0.0,0.0,0.0,1,1,0
177,'1',1,1,1,7.257,1.933,0.0,0.0,0.0,0.0,1,1,0
179,'1',1,1,1,17.547,3.587,0.0,0.0,0.0,0.0,1,1,0
182,'1',1,1,1,8.2,0.475,0.0,0.0,0.0,0.0,1,1,0
184,'1',1,1,1,5.928,2.924,0.0,0.0,0.0,0.0,1,1,0
185,'1',1,1,1,10.158,4.451,0.0,0.0,0.0,0.0,1,1,0
186,'1',1,1,1,10.158,5.293,0.0,0.0,0.0,0.0,1,1,0
188,'1',1,1,1,14.103,6.029,0.0,0.0,0.0,0.0,1,1,0
189,'1',1,1,1,11.424,0.808,0.0,0.0,0.0,0.0,1,1,0
190,'1',1,1,1,3.454,0.878,0.0,0.0,0.0,0.0,1,1,0
191,'1',1,1,1,3.948,2.039,0.0,0.0,0.0,0.0,1,1,0
192,'1',1,1,1,12.894,2.343,0.0,0.0,0.0,0.0,1,1,0
193,'1',1,1,1,12.532,3.587,0.0,0.0,0.0,0.0,1,1,0
195,'1',1,1,1,39.766,13.362,0.0,0.0,0.0,0.0,1,1,0
197,'1',1,1,1,13.504,2.859,0.0,0.0,0.0,0.0,1,1,0
200,'1',1,1,1,24.9,9.153,0.0,0.0,0.0,0.0,1,1,0
202,'1',1,1,1,11.955,6.893,0.0,0.0,0.0,0.0,1,1,0
204,'1',1,1,1,20.916,8.934,0.0,0.0,0.0,0.0,1,1,0
205,'1',1,1,1,16.691,2.01,0.0,0.0,0.0,0.0,1,1,0
206,'1',1,1,1,15.984,9.123,0.0,0.0,0.0,0.0,1,1,0
209,'1',1,1,1,49.448,24.695,0.0,0.0,0.0,0.0,1,1,0
211,'1',1,1,1,16.213,6.485,0.0,0.0,0.0,0.0,1,1,0
213,'1',1,1,1,2.749,0.883,0.0,0.0,0.0,0.0,1,1,0
214,'1',1,1,1,2.384,0.348,0.0,0.0,0.0,0.0,1,1,0
215,'1',1,1,1,5.314,2.248,0.0,0.0,0.0,0.0,1,1,0
219,'1',1,1,1,12.346,2.743,0.0,0.0,0.0,0.0,1,1,0
220,'1',1,1,1,1.815,0.365,0.0,0.0,0.0,0.0,1,1,0
221,'1',1,1,1,8.664,2.07,0.0,0.0,0.0,0.0,1,1,0
223,'1',1,1,1,3.423,1.476,0.0,0.0,0.0,0.0,1,1,0
224,'1',1,1,1,2.815,0.789,0.0,0.0,0.0,0.0,1,1,0
225,'1',1,1,1,8.98,1.199,0.0,0.0,0.0,0.0,1,1,0
227,'1',1,1,1,6.615,1.411,0.0,0.0,0.0,0.0,1,1,0
228,'1',1,1,1,15.059,3.337,0.0,0.0,0.0,0.0,1,1,0
229,'1',1,1,1,9.347,3.154,0.0,0.0,0.0,0.0,1,1,0
230,'1',1,1,1,26.766,3.585,0.0,0.0,0.0,0.0,1,1,0
231,'1',1,1,1,10.533,1.763,0.0,0.0,0.0,0.0,1,1,0
232,'1',1,1,1,13.263,3.284,0.0,0.0,0.0,0.0,1,1,0
233,'1',1,1,1,8.437,1.985,0.0,0.0,0.0,0.0,1,1,0
237,'1',1,1,1,21.49,7.725,0.0,0.0,0.0,0.0,1,1,0
239,'1',1,1,1,7.442,2.776,0.0,0.0,0.0,0.0,1,1,0
241,'1',1,1,1,6.45,1.361,0.0,0.0,0.0,0.0,1,1,0
242,'1',1,1,1,2.936,1.524,0.0,0.0,0.0,0.0,1,1,0
243,'1',1,1,1,3.351,4.137,0.0,0.0,0.0,0.0,1,1,0
244,'1',1,1,1,4.968,1.442,0.0,0.0,0.0,0.0,1,1,0
247,'1',1,1,1,16.805,6.26,0.0,0.0,0.0,0.0,1,1,0
249,'1',1,1,1,5.69,1.076,0.0,0.0,0.0,0.0,1,1,0
251,'1',1,1,1,4.24,0.971,0.0,0.0,0.0,0.0,1,1,0
254,'1',1,1,1,34.855,3.2,0.0,0.0,0.0,0.0,1,1,0
256,'1',1,1,1,13.215,0.849,0.0,0.0,0.0,0.0,1,1,0
258,'1',1,1,1,31.604,13.257,0.0,0.0,0.0,0.0,1,1,0
259,'1',1,1,1,15.976,8.659,0.0,0.0,0.0,0.0,1,1,0
260,'1',1,1,1,1.86,1.215,0.0,0.0,0.0,0.0,1,1,0
263,'1',1,1,1,37.654,11.284,0.0,0.0,0.0,0.0,1,1,0
264,'1',1,1,1,18.828,3.702,0.0,0.0,0.0,0.0,1,1,0
265,'1',1,1,1,22.095,4.007,0.0,0.0,0.0,0.0,1,1,0
267,'1',1,1,1,18.828,5.295,0.0,0.0,0.0,0.0,1,1,0
270,'1',1,1,1,16.198,7.353,0.0,0.0,0.0,0.0,1,1,0
271,'1',1,1,1,28.951,7.36,0.0,0.0,0.0,0.0,1,1,0
274,'1',1,1,1,6.831,3.44,0.0,0.0,0.0,0.0,1,1,0
276,'1',1,1,1,3.377,0.64,0.0,0.0,0.0,0.0,1,1,0
277,'1',1,1,1,8.476,0.814,0.0,0.0,0.0,0.0,1,1,0
278,'1',1,1,1,15.313,9.127,0.0,0.0,0.0,0.0,1,1,0
279,'1',1,1,1,5.12,0.588,0.0,0.0,0.0,0.0,1,1,0
280,'1',1,1,1,18.105,6.053,0.0,0.0,0.0,0.0,1,1,0
281,'1',1,1,1,36.208,13.005,0.0,0.0,0.0,0.0,1,1,0
282,'1',1,1,1,10.235,2.624,0.0,0.0,0.0,0.0,1,1,0
283,'1',1,1,1,37.99,11.015,0.0,0.0,0.0,0.0,1,1,0
284,'1',1,1,1,18.995,5.479,0.0,0.0,0.0,0.0,1,1,0
286,'1',1,1,1,37.1,7.334,0.0,0.0,0.0,0.0,1,1,0
290,'1',1,1,1,15.464,0.885,0.0,0.0,0.0,0.0,1,1,0
292,'1',1,1,1,23.776,17.287,0.0,0.0,0.0,0.0,1,1,0
296,'1',1,1,1,44.432,5.444,0.0,0.0,0.0,0.0,1,1,0
298,'1',1,1,1,22.216,15.687,0.0,0.0,0.0,0.0,1,1,0
300,'1',1,1,1,22.216,4.254,0.0,0.0,0.0,0.0,1,1,0
301,'1',1,1,1,5.734,2.423,0.0,0.0,0.0,0.0,1,1,0
303,'1',1,1,1,7.109,1.342,0.0,0.0,0.0,0.0,1,1,0
305,'1',1,1,1,6.767,0.88,0.0,0.0,0.0,0.0,1,1,0
306,'1',1,1,1,3.478,1.852,0.0,0.0,0.0,0.0,1,1,0
307,'1',1,1,1,5.212,0.825,0.0,0.0,0.0,0.0,1,1,0
308,'1',1,1,1,5.453,2.222,0.0,0.0,0.0,0.0,1,1,0
309,'1',1,1,1,18.372,0.885,0.0,0.0,0.0,0.0,1,1,0
313,'1',1,1,1,19.491,11.511,0.0,0.0,0.0,0.0,1,1,0
314,'1',1,1,1,18.372,1.975,0.0,0.0,0.0,0.0,1,1,0
316,'1',1,1,1,18.372,2.003,0.0,0.0,0.0,0.0,1,1,0
317,'1',1,1,1,5.88,1.404,0.0,0.0,0.0,0.0,1,1,0
319,'1',1,1,1,3.898,1.985,0.0,0.0,0.0,0.0,1,1,0
321,'1',1,1,1,5.298,0.903,0.0,0.0,0.0,0.0,1,1,0
322,'1',1,1,1,11.215,3.32,0.0,0.0,0.0,0.0,1,1,0
325,'1',1,1,1,17.841,2.336,0.0,0.0,0.0,0.0,1,1,0
327,'1',1,1,1,13.076,5.622,0.0,0.0,0.0,0.0,1,1,0
329,'1',1,1,1,18.365,4.643,0.0,0.0,0.0,0.0,1,1,0
331,'1',1,1,1,12.303,6.916,0.0,0.0,0.0,0.0,1,1,0
332,'1',1,1,1,7.231,1.635,0.0,0.0,0.0,0.0,1,1,0
336,'1',1,1,1,14.991,7.306,0.0,0.0,0.0,0.0,1,1,0
...
0 / END OF LOAD DATA BEGIN FIXED SHUNT DATA
27,'1',1,0.0,-0.736
194,'1',1,0.0,149.11
252,'1',1,0.0,121.46
371,'1',1,0.0,9.194
383,'1',1,0.0,13.885
473,'1',1,0.0,240.63
509,'1',1,0.0,5.987
567,'1',1,0.0,30.519
590,'1',1,0.0,11.072
748,'1',1,0.0,160.768
759,'1',1,0.0,129.716
834,'1',1,0.0,22.568
842,'1',1,0.0,55.321
898,'1',1,0.0,15.188
902,'1',1,0.0,25.729
1020,'1',1,0.0,30.621
1116,'1',1,0.0,401.632
1120,'1',1,0.0,17.337
1185,'1',1,0.0,11.246
1277,'1',1,0.0,84.428
1296,'1',1,0.0,191.954
1300,'1',1,0.0,34.349
1320,'1',1,0.0,6.486
1336,'1',1,0.0,7.244
1343,'1',1,0.0,135.196
1444,'1',1,0.0,21.165
1472,'1',1,0.0,11.186
1502,'1',1,0.0,13.25
1567,'1',1,0.0,31.872
1600,'1',1,0.0,19.253
1608,'1',1,0.0,1.377
1737,'1',1,0.0,16.647
1749,'1',1,0.0,16.975
1794,'1',1,0.0,103.824
1816,'1',1,0.0,103.29
1822,'1',1,0.0,20.642
1888,'1',1,0.0,276.753
1977,'1',1,0.0,100.432
2001,'1',1,0.0,61.117
2136,'1',1,0.0,13.691
2144,'1',1,0.0,25.181
2189,'1',1,0.0,7.697
2199,'1',1,0.0,77.84
2986,'1',1,0.0,80.489
3117,'1',1,0.0,26.479
3209,'1',1,0.0,6.657
3306,'1',1,0.0,30.199
3385,'1',1,0.0,25.722
3401,'1',1,0.0,-18.96
3428,'1',1,0.0,261.015
3447,'1',1,0.0,226.256
3811,'1',1,0.0,-57.367
3892,'1',1,0.0,-37.459
4030,'1',1,0.0,3.793
4565,'1',1,0.0,2.211
4629,'1',1,0.0,25.865
4799,'1',1,0.0,144.638
5065,'1',1,0.0,-16.228
5716,'1',1,0.0,4.371
6039,'1',1,0.0,26.584
6059,'1',1,0.0,-42.46
6249,'1',1,0.0,-9.557
6496,'1',1,0.0,19.978
6565,'1',1,0.0,0.444
6782,'1',1,0.0,1.587
6819,'1',1,0.0,2.715
6901,'1',1,0.0,7.032
7143,'1',1,0.0,14.025
7459,'1',1,0.0,43.044
7654,'1',1,0.0,107.078
7674,'1',1,0.0,74.866
7853,'1',1,0.0,12.011
8032,'1',1,0.0,63.311
8172,'1',1,0.0,-13.761
8208,'1',1,0.0,17.878
8215,'1',1,0.0,21.594
8233,'1',1,0.0,45.424
8259,'1',1,0.0,7.283
8264,'1',1,0.0,25.857
8882,'1',1,0.0,80.0
9050,'1',1,0.0,-32.33
9232,'1',1,0.0,8.721
9441,'1',1,0.0,24.548
9614,'1',1,0.0,-2.827
0 / END OF FIXED SHUNT DATA BEGIN GENERATOR DATA
2275,'1',43.243357,-10.6,48.61,-10.6,1.03643,0,95.5,0.0,1.0,0.0,0.0,1.0,1,1.0,95.5,29.823,1,1.0,0,1.0,0,1.0,0,1.0,0,1.0
2276,'1',51.048157,-9.4019139,48.61,-10.6,1.036,0,95.5,0.0,1.0,0.0,0.0,1.0,1,1.0,95.5,39.579,1,1.0,0,1.0,0,1.0,0,1.0,0,1.0
2277,'1',28.812957,-9.2737523,48.61,-10.6,1.036,0,95.5,0.0,1.0,0.0,0.0,1.0,1,1.0,95.5,11.785,1,1.0,0,1.0,0,1.0,0,1.0,0,1.0
2278,'1',28.443357,-10.6,48.61,-10.6,1.036,0,95.5,0.0,1.0,0.0,0.0,1.0,1,1.0,95.5,11.323,1,1.0,0,1.0,0,1.0,0,1.0,0,1.0
2279,'1',37.428957,-10.387799,48.61,-10.6,1.036,0,95.5,0.0,1.0,0.0,0.0,1.0,1,1.0,95.5,22.555,1,1.0,0,1.0,0,1.0,0,1.0,0,1.0
2280,'1',34.704157,-9.2589955,48.61,-10.6,1.036,0,95.5,0.0,1.0,0.0,0.0,1.0,1,1.0,95.5,19.149,1,1.0,0,1.0,0,1.0,0,1.0,0,1.0
2285,'1',201.0,-14.707724,42.813,-28.944,1.04,0,201.0,0.0,1.0,0.0,0.0,1.0,1,1.0,201.0,58.433,1,1.0,0,1.0,0,1.0,0,1.0,0,1.0
2289,'1',2.859,-0.927,3.542,-0.927,1.0492329,0,7.6,0.0,1.0,0.0,0.0,1.0,0,1.0,7.6,2.682,1,1.0,0,1.0,0,1.0,0,1.0,0,1.0
2289,'2',1.768,-0.573,2.19,-0.573,1.0492329,0,4.7,0.0,1.0,0.0,0.0,1.0,0,1.0,4.7,1.507,1,1.0,0,1.0,0,1.0,0,1.0,0,1.0
2290,'1',0.79,-0.211,0.808,-0.211,1.0492329,0,1.73,0.0,1.0,0.0,0.0,1.0,0,1.0,1.733,0.79,1,1.0,0,1.0,0,1.0,0,1.0,0,1.0
2290,'2',0.652,-0.211,0.808,-0.211,1.0492329,0,1.73,0.0,1.0,0.0,0.0,1.0,0,1.0,1.733,0.337,1,1.0,0,1.0,0,1.0,0,1.0,0,1.0
2291,'1',0.652,-0.211,0.808,-0.211,1.0492329,0,1.73,0.0,1.0,0.0,0.0,1.0,0,1.0,1.733,0.583,1,1.0,0,1.0,0,1.0,0,1.0,0,1.0
2291,'2',0.849,-0.211,0.808,-0.211,1.0492329,0,1.73,0.0,1.0,0.0,0.0,1.0,0,1.0,1.733,0.849,1,1.0,0,1.0,0,1.0,0,1.0,0,1.0
2292,'1',0.652,-0.211,0.808,-0.211,1.0492329,0,1.73,0.0,1.0,0.0,0.0,1.0,0,1.0,1.733,0.316,1,1.0,0,1.0,0,1.0,0,1.0,0,1.0
2293,'1',0.652,-0.211,0.808,-0.211,1.0492329,0,1.73,0.0,1.0,0.0,0.0,1.0,0,1.0,1.733,0.545,1,1.0,0,1.0,0,1.0,0,1.0,0,1.0
2294,'1',0.602,-0.195,0.746,-0.195,1.0492329,0,1.6,0.0,1.0,0.0,0.0,1.0,0,1.0,1.6,0.427,1,1.0,0,1.0,0,1.0,0,1.0,0,1.0
2294,'2',0.602,-0.195,0.746,-0.195,1.0492329,0,1.6,0.0,1.0,0.0,0.0,1.0,0,1.0,1.6,0.429,1,1.0,0,1.0,0,1.0,0,1.0,0,1.0
2295,'1',0.564,-0.183,0.699,-0.183,1.0492329,0,1.5,0.0,1.0,0.0,0.0,1.0,0,1.0,1.5,0.455,1,1.0,0,1.0,0,1.0,0,1.0,0,1.0
2295,'2',0.527,-0.171,0.652,-0.171,1.0492329,0,1.4,0.0,1.0,0.0,0.0,1.0,0,1.0,1.4,0.161,1,1.0,0,1.0,0,1.0,0,1.0,0,1.0
2296,'1',0.238,-0.061,0.233,-0.061,1.0492329,0,0.5,0.0,1.0,0.0,0.0,1.0,0,1.0,0.5,0.238,1,1.0,0,1.0,0,1.0,0,1.0,0,1.0
2302,'1',111.202,129.071,149.646,-32.634,1.0128485,0,294.0,0.0,1.0,0.0,0.0,1.0,0,1.0,294.0,111.202,1,1.0,0,1.0,0,1.0,0,1.0,0,1.0
2303,'1',87.715,43.051,149.646,-32.634,1.0252761,0,294.0,0.0,1.0,0.0,0.0,1.0,0,1.0,294.0,87.715,1,1.0,0,1.0,0,1.0,0,1.0,0,1.0
2304,'1',73.167,100.92,149.646,-32.634,1.0190244,0,294.0,0.0,1.0,0.0,0.0,1.0,0,1.0,294.0,73.167,1,1.0,0,1.0,0,1.0,0,1.0,0,1.0
2310,'1',274.004,0.0,290.038,-75.933,1.0427472,0,622.4,0.0,1.0,0.0,0.0,1.0,0,1.0,622.4,274.004,1,1.0,0,1.0,0,1.0,0,1.0,0,1.0
2315,'1',112.5,50.38831,57.262,-12.488,1.0135,0,112.5,0.0,1.0,0.0,0.0,1.0,1,1.0,112.5,50.341,1,1.0,0,1.0,0,1.0,0,1.0,0,1.0
2316,'1',112.5,47.097127,57.262,-12.488,1.0135,0,112.5,0.0,1.0,0.0,0.0,1.0,1,1.0,112.5,36.523,1,1.0,0,1.0,0,1.0,0,1.0,0,1.0
2317,'1',112.5,26.034751,57.262,-12.488,1.0135,0,112.5,0.0,1.0,0.0,0.0,1.0,1,1.0,112.5,47.475,1,1.0,0,1.0,0,1.0,0,1.0,0,1.0
2318,'1',112.5,47.683048,57.262,-12.488,1.0135,0,112.5,0.0,1.0,0.0,0.0,1.0,1,1.0,112.5,15.094,1,1.0,0,1.0,0,1.0,0,1.0,0,1.0
2323,'1',161.0,-16.696232,34.293,-23.184,1.04,0,161.0,0.0,1.0,0.0,0.0,1.0,1,1.0,161.0,25.175,1,1.0,0,1.0,0,1.0,0,1.0,0,1.0
2327,'1',101.2,-4.3160009,21.556,-14.573,1.04,0,101.2,0.0,1.0,0.0,0.0,1.0,1,1.0,101.2,39.642,1,1.0,0,1.0,0,1.0,0,1.0,0,1.0
2332,'1',111.5236,-2.1084544,93.317,-20.35,1.0625,0,183.33,0.0,1.0,0.0,0.0,1.0,1,1.0,183.333,54.251,1,1.0,0,1.0,0,1.0,0,1.0,0,1.0
2333,'1',183.333,14.075527,93.317,-20.35,1.0625,0,183.33,0.0,1.0,0.0,0.0,1.0,1,1.0,183.333,85.229,1,1.0,0,1.0,0,1.0,0,1.0,0,1.0
2334,'1',148.49213,-1.8870262,93.317,-20.35,1.0625,0,183.33,0.0,1.0,0.0,0.0,1.0,1,1.0,183.333,69.843,1,1.0,0,1.0,0,1.0,0,1.0,0,1.0
2340,'1',187.779,0.0,336.452,-88.084,1.0358916,0,722.0,0.0,1.0,0.0,0.0,1.0,0,1.0,722.0,187.779,1,1.0,0,1.0,0,1.0,0,1.0,0,1.0
2341,'1',295.436,0.0,336.452,-88.084,1.0358916,0,722.0,0.0,1.0,0.0,0.0,1.0,0,1.0,722.0,295.436,1,1.0,0,1.0,0,1.0,0,1.0,0,1.0
2346,'1',29.089955,-5.2511476,45.505,-9.923,1.036,0,89.4,0.0,1.0,0.0,0.0,1.0,1,1.0,89.4,13.679,1,1.0,0,1.0,0,1.0,0,1.0,0,1.0
2347,'1',34.889955,-7.0950084,45.505,-9.923,1.036,0,89.4,0.0,1.0,0.0,0.0,1.0,1,1.0,89.4,20.929,1,1.0,0,1.0,0,1.0,0,1.0,0,1.0
2348,'1',32.830755,-4.6198197,45.505,-9.923,1.036,0,89.4,0.0,1.0,0.0,0.0,1.0,1,1.0,89.4,18.355,1,1.0,0,1.0,0,1.0,0,1.0,0,1.0
2349,'1',47.649155,-4.5424554,45.505,-9.923,1.036,0,89.4,0.0,1.0,0.0,0.0,1.0,1,1.0,89.4,36.878,1,1.0,0,1.0,0,1.0,0,1.0,0,1.0
2350,'1',38.605955,-7.0270996,45.505,-9.923,1.036,0,89.4,0.0,1.0,0.0,0.0,1.0,1,1.0,89.4,25.574,1,1.0,0,1.0,0,1.0,0,1.0,0,1.0
2351,'1',51.174755,-4.8811707,45.505,-9.923,1.036,0,89.4,0.0,1.0,0.0,0.0,1.0,1,1.0,89.4,41.285,1,1.0,0,1.0,0,1.0,0,1.0,0,1.0
2352,'1',0.17908305,-0.048,0.221,-0.048,1.0402762,0,0.43,0.0,1.0,0.0,0.0,1.0,1,1.0,0.433,0.114,1,1.0,0,1.0,0,1.0,0,1.0,0,1.0
2353,'1',0.22708305,-0.044485813,0.221,-0.048,1.0382552,0,0.43,0.0,1.0,0.0,0.0,1.0,1,1.0,0.433,0.174,1,1.0,0,1.0,0,1.0,0,1.0,0,1.0
2353,'2',0.25668305,-0.044485813,0.221,-0.048,1.0382552,0,0.43,0.0,1.0,0.0,0.0,1.0,1,1.0,0.433,0.211,1,1.0,0,1.0,0,1.0,0,1.0,0,1.0
2358,'1',15.775,-0.94028303,8.029,-1.751,1.04,0,15.77,0.0,1.0,0.0,0.0,1.0,1,1.0,15.775,2.354,1,1.0,0,1.0,0,1.0,0,1.0,0,1.0
2358,'2',15.775,-0.94028303,8.029,-1.751,1.04,0,15.77,0.0,1.0,0.0,0.0,1.0,1,1.0,15.775,7.877,1,1.0,0,1.0,0,1.0,0,1.0,0,1.0
2359,'1',15.775,-1.729341,8.029,-1.751,1.0412294,0,15.77,0.0,1.0,0.0,0.0,1.0,1,1.0,15.775,5.353,1,1.0,0,1.0,0,1.0,0,1.0,0,1.0
2360,'1',15.775,5.1883792,8.029,-1.751,1.045,0,15.77,0.0,1.0,0.0,0.0,1.0,1,1.0,15.775,4.735,1,1.0,0,1.0,0,1.0,0,1.0,0,1.0
2364,'1',141.27697,-19.814,90.856,-19.814,1.0377304,0,178.5,0.0,1.0,0.0,0.0,1.0,1,1.0,178.5,21.473,1,1.0,0,1.0,0,1.0,0,1.0,0,1.0
2365,'1',178.5,-19.750419,90.856,-19.814,1.0366336,0,178.5,0.0,1.0,0.0,0.0,1.0,1,1.0,178.5,49.538,1,1.0,0,1.0,0,1.0,0,1.0,0,1.0
2366,'1',152.40711,-12.886067,90.856,-19.814,1.036,0,178.5,0.0,1.0,0.0,0.0,1.0,1,1.0,178.5,56.891,1,1.0,0,1.0,0,1.0,0,1.0,0,1.0
2371,'1',81.113,-26.314,123.891,-27.017,1.0533586,0,243.4,0.0,1.0,0.0,0.0,1.0,0,1.0,243.4,39.17,1,1.0,0,1.0,0,1.0,0,1.0,0,1.0
2372,'1',78.726,-27.017,123.891,-27.017,1.0533586,0,243.4,0.0,1.0,0.0,0.0,1.0,0,1.0,243.4,78.726,1,1.0,0,1.0,0,1.0,0,1.0,0,1.0
2373,'1',112.876,-22.727,123.891,-27.017,1.0533586,0,243.4,0.0,1.0,0.0,0.0,1.0,0,1.0,243.4,112.876,1,1.0,0,1.0,0,1.0,0,1.0,0,1.0
2376,'1',3.45,-0.383,1.756,-0.383,1.040733,0,3.45,0.0,1.0,0.0,0.0,1.0,1,1.0,3.45,0.659,1,1.0,0,1.0,0,1.0,0,1.0,0,1.0
2376,'2',3.45,-0.383,1.756,-0.383,1.040733,0,3.45,0.0,1.0,0.0,0.0,1.0,1,1.0,3.45,1.486,1,1.0,0,1.0,0,1.0,0,1.0,0,1.0
2376,'3',5.0,-0.555,2.545,-0.555,1.040733,0,5.0,0.0,1.0,0.0,0.0,1.0,1,1.0,5.0,1.574,1,1.0,0,1.0,0,1.0,0,1.0,0,1.0
2376,'4',48.0,-5.328,24.432,-5.328,1.040733,0,48.0,0.0,1.0,0.0,0.0,1.0,1,1.0,48.0,9.187,1,1.0,0,1.0,0,1.0,0,1.0,0,1.0
2379,'1',39.6,6.5454447,148.609,0.0,1.041777,0,39.6,0.0,1.0,0.0,0.0,1.0,1,1.0,39.6,13.389,1,1.0,0,1.0,0,1.0,0,1.0,0,1.0
2384,'1',130.0,57.127747,66.17,-14.43,1.009,0,130.0,0.0,1.0,0.0,0.0,1.0,1,1.0,130.0,29.611,1,1.0,0,1.0,0,1.0,0,1.0,0,1.0
2385,'1',126.57009,59.97667,66.17,-14.43,1.009,0,130.0,0.0,1.0,0.0,0.0,1.0,1,1.0,130.0,35.775,1,1.0,0,1.0,0,1.0,0,1.0,0,1.0
2390,'1',155.9,-17.305,79.353,-17.305,1.0620626,0,155.9,0.0,1.0,0.0,0.0,1.0,1,1.0,155.9,39.963,1,1.0,0,1.0,0,1.0,0,1.0,0,1.0
2391,'1',101.18564,-17.305,79.353,-17.305,1.0596365,0,155.9,0.0,1.0,0.0,0.0,1.0,1,1.0,155.9,49.889,1,1.0,0,1.0,0,1.0,0,1.0,0,1.0
2392,'1',145.51784,-17.305,79.353,-17.305,1.0587374,0,155.9,0.0,1.0,0.0,0.0,1.0,1,1.0,155.9,21.03,1,1.0,0,1.0,0,1.0,0,1.0,0,1.0
2397,'1',77.142,0.0,335.986,-87.962,1.0406657,0,721.0,0.0,1.0,0.0,0.0,1.0,0,1.0,721.0,77.142,1,1.0,0,1.0,0,1.0,0,1.0,0,1.0
2401,'1',3.2,0.50100815,1.229,-0.157,1.039,0,3.2,0.0,1.0,0.0,0.0,1.0,1,1.0,3.2,0.842,1,1.0,0,1.0,0,1.0,0,1.0,0,1.0
2401,'2',3.2,0.50100815,1.229,-0.157,1.039,0,3.2,0.0,1.0,0.0,0.0,1.0,1,1.0,3.2,1.397,1,1.0,0,1.0,0,1.0,0,1.0,0,1.0
2401,'3',3.2,0.50100815,1.229,-0.157,1.039,0,3.2,0.0,1.0,0.0,0.0,1.0,1,1.0,3.2,1.238,1,1.0,0,1.0,0,1.0,0,1.0,0,1.0
2401,'4',33.0,5.1667507,12.672,-1.617,1.039,0,33.0,0.0,1.0,0.0,0.0,1.0,1,1.0,33.0,7.526,1,1.0,0,1.0,0,1.0,0,1.0,0,1.0
2401,'5',33.0,5.1667507,12.672,-1.617,1.039,0,33.0,0.0,1.0,0.0,0.0,1.0,1,1.0,33.0,7.945,1,1.0,0,1.0,0,1.0,0,1.0,0,1.0
2404,'1',27.663118,-10.98,16.241,-10.98,1.0459226,0,76.25,0.0,1.0,0.0,0.0,1.0,1,1.0,76.25,15.232,1,1.0,0,1.0,0,1.0,0,1.0,0,1.0
2404,'2',33.145518,-10.98,16.241,-10.98,1.0459226,0,76.25,0.0,1.0,0.0,0.0,1.0,1,1.0,76.25,22.085,1,1.0,0,1.0,0,1.0,0,1.0,0,1.0
2409,'1',28.0,1.8925708,14.252,-3.108,1.033,0,28.0,0.0,1.0,0.0,0.0,1.0,1,1.0,28.0,3.66,1,1.0,0,1.0,0,1.0,0,1.0,0,1.0
2409,'2',28.0,1.8925708,14.252,-3.108,1.033,0,28.0,0.0,1.0,0.0,0.0,1.0,1,1.0,28.0,4.228,1,1.0,0,1.0,0,1.0,0,1.0,0,1.0
2410,'1',28.0,-3.063039,14.252,-3.108,1.0460262,0,28.0,0.0,1.0,0.0,0.0,1.0,1,1.0,28.0,8.52,1,1.0,0,1.0,0,1.0,0,1.0,0,1.0
2411,'1',28.0,-0.95720055,14.252,-3.108,1.04,0,28.0,0.0,1.0,0.0,0.0,1.0,1,1.0,28.0,9.61,1,1.0,0,1.0,0,1.0,0,1.0,0,1.0
2411,'2',28.0,-0.95720055,14.252,-3.108,1.04,0,28.0,0.0,1.0,0.0,0.0,1.0,1,1.0,28.0,3.693,1,1.0,0,1.0,0,1.0,0,1.0,0,1.0
2412,'1',28.0,-3.0853369,14.252,-3.108,1.0424073,0,28.0,0.0,1.0,0.0,0.0,1.0,1,1.0,28.0,4.069,1,1.0,0,1.0,0,1.0,0,1.0,0,1.0
2416,'1',28.3,-2.191704,14.405,-3.141,1.04,0,28.3,0.0,1.0,0.0,0.0,1.0,1,1.0,28.3,12.782,1,1.0,0,1.0,0,1.0,0,1.0,0,1.0
2416,'2',28.3,-2.191704,14.405,-3.141,1.04,0,28.3,0.0,1.0,0.0,0.0,1.0,1,1.0,28.3,8.123,1,1.0,0,1.0,0,1.0,0,1.0,0,1.0
2417,'1',28.3,-1.8356709,14.405,-3.141,1.04,0,28.3,0.0,1.0,0.0,0.0,1.0,1,1.0,28.3,14.024,1,1.0,0,1.0,0,1.0,0,1.0,0,1.0
2417,'2',28.3,-1.8356709,14.405,-3.141,1.04,0,28.3,0.0,1.0,0.0,0.0,1.0,1,1.0,28.3,3.342,1,1.0,0,1.0,0,1.0,0,1.0,0,1.0
2418,'1',28.3,-2.1576961,14.405,-3.141,1.04,0,28.3,0.0,1.0,0.0,0.0,1.0,1,1.0,28.3,9.646,1,1.0,0,1.0,0,1.0,0,1.0,0,1.0
2418,'2',28.3,-2.1576961,14.405,-3.141,1.04,0,28.3,0.0,1.0,0.0,0.0,1.0,1,1.0,28.3,7.23,1,1.0,0,1.0,0,1.0,0,1.0,0,1.0
2423,'1',61.0,31.049,31.049,-6.771,1.0217355,0,61.0,0.0,1.0,0.0,0.0,1.0,1,1.0,61.0,8.738,1,1.0,0,1.0,0,1.0,0,1.0,0,1.0
2424,'1',24.0,-2.663819,12.216,-2.664,1.0401273,0,24.0,0.0,1.0,0.0,0.0,1.0,1,1.0,24.0,4.166,1,1.0,0,1.0,0,1.0,0,1.0,0,1.0
2428,'1',112.194,18.092,126.571,-27.602,1.0286206,0,248.67,0.0,1.0,0.0,0.0,1.0,0,1.0,248.667,112.194,1,1.0,0,1.0,0,1.0,0,1.0,0,1.0
2429,'1',88.972,10.799,126.571,-27.602,1.0286206,0,248.67,0.0,1.0,0.0,0.0,1.0,0,1.0,248.667,88.972,1,1.0,0,1.0,0,1.0,0,1.0,0,1.0
2430,'1',222.87814,122.01064,126.571,-27.602,1.065,0,248.67,0.0,1.0,0.0,0.0,1.0,1,1.0,248.667,83.42,1,1.0,0,1.0,0,1.0,0,1.0,0,1.0
2433,'1',28.006755,0.94891533,45.505,-9.923,1.044,0,89.4,0.0,1.0,0.0,0.0,1.0,1,1.0,89.4,12.325,1,1.0,0,1.0,0,1.0,0,1.0,0,1.0
2433,'2',30.357955,0.94891533,45.505,-9.923,1.044,0,89.4,0.0,1.0,0.0,0.0,1.0,1,1.0,89.4,15.264,1,1.0,0,1.0,0,1.0,0,1.0,0,1.0
2433,'3',37.282755,0.94891533,45.505,-9.923,1.044,0,89.4,0.0,1.0,0.0,0.0,1.0,1,1.0,89.4,23.92,1,1.0,0,1.0,0,1.0,0,1.0,0,1.0
2433,'4',47.202755,0.94891533,45.505,-9.923,1.044,0,89.4,0.0,1.0,0.0,0.0,1.0,1,1.0,89.4,36.32,1,1.0,0,1.0,0,1.0,0,1.0,0,1.0
2433,'5',26.730755,0.94891533,45.505,-9.923,1.044,0,89.4,0.0,1.0,0.0,0.0,1.0,1,1.0,89.4,10.73,1,1.0,0,1.0,0,1.0,0,1.0,0,1.0
2441,'1',168.333,85.682,85.682,-18.685,1.0178358,0,168.33,0.0,1.0,0.0,0.0,1.0,1,1.0,168.333,53.326,1,1.0,0,1.0,0,1.0,0,1.0,0,1.0
2442,'1',77.826362,85.682,85.682,-18.685,1.0197378,0,168.33,0.0,1.0,0.0,0.0,1.0,1,1.0,168.333,48.665,1,1.0,0,1.0,0,1.0,0,1.0,0,1.0
2443,'1',168.333,85.682,85.682,-18.685,1.0171369,0,168.33,0.0,1.0,0.0,0.0,1.0,1,1.0,168.333,75.409,1,1.0,0,1.0,0,1.0,0,1.0,0,1.0
2449,'1',143.01652,169.088,169.088,-35.226,1.0288322,0,317.35,0.0,1.0,0.0,0.0,1.0,1,1.0,317.35,134.767,1,1.0,0,1.0,0,1.0,0,1.0,0,1.0
2450,'1',130.95612,100.634,100.634,-35.226,1.017941,0,317.35,0.0,1.0,0.0,0.0,1.0,1,1.0,317.35,113.719,1,1.0,0,1.0,0,1.0,0,1.0,0,1.0
2455,'1',131.8,18.544921,67.086,-14.63,1.032,0,131.8,0.0,1.0,0.0,0.0,1.0,1,1.0,131.8,53.208,1,1.0,0,1.0,0,1.0,0,1.0,0,1.0
2456,'1',94.400797,16.832426,67.086,-14.63,1.0365,0,131.8,0.0,1.0,0.0,0.0,1.0,1,1.0,131.8,59.222,1,1.0,0,1.0,0,1.0,0,1.0,0,1.0
2459,'1',14.044881,-2.442,11.198,-2.442,1.0534454,0,22.0,0.0,1.0,0.0,0.0,1.0,1,1.0,22.0,7.414,1,1.0,0,1.0,0,1.0,0,1.0,0,1.0
2459,'2',22.0,-2.442,11.198,-2.442,1.0534454,0,22.0,0.0,1.0,0.0,0.0,1.0,1,1.0,22.0,4.504,1,1.0,0,1.0,0,1.0,0,1.0,0,1.0
2459,'3',22.0,-2.442,11.198,-2.442,1.0534454,0,22.0,0.0,1.0,0.0,0.0,1.0,1,1.0,22.0,9.955,1,1.0,0,1.0,0,1.0,0,1.0,0,1.0
2464,'1',96.683,14.973461,49.212,-10.732,1.054,0,96.68,0.0,1.0,0.0,0.0,1.0,1,1.0,96.683,27.432,1,1.0,0,1.0,0,1.0,0,1.0,0,1.0
2465,'1',96.683,11.078093,49.212,-10.732,1.054,0,96.68,0.0,1.0,0.0,0.0,1.0,1,1.0,96.683,28.207,1,1.0,0,1.0,0,1.0,0,1.0,0,1.0
2466,'1',96.683,9.5775189,49.212,-10.732,1.054,0,96.68,0.0,1.0,0.0,0.0,1.0,1,1.0,96.683,30.797,1,1.0,0,1.0,0,1.0,0,1.0,0,1.0
2467,'1',96.683,11.589315,49.212,-10.732,1.054,0,96.68,0.0,1.0,0.0,0.0,1.0,1,1.0,96.683,30.344,1,1.0,0,1.0,0,1.0,0,1.0,0,1.0
2468,'1',96.683,20.655163,49.212,-10.732,1.054,0,96.68,0.0,1.0,0.0,0.0,1.0,1,1.0,96.683,32.937,1,1.0,0,1.0,0,1.0,0,1.0,0,1.0
2469,'1',96.683,14.836945,49.212,-10.732,1.054,0,96.68,0.0,1.0,0.0,0.0,1.0,1,1.0,96.683,43.072,1,1.0,0,1.0,0,1.0,0,1.0,0,1.0
2473,'1',76.15,32.483937,38.76,-8.453,1.045,0,76.15,0.0,1.0,0.0,0.0,1.0,1,1.0,76.15,12.006,1,1.0,0,1.0,0,1.0,0,1.0,0,1.0
2473,'2',76.15,32.483937,38.76,-8.453,1.045,0,76.15,0.0,1.0,0.0,0.0,1.0,1,1.0,76.15,22.291,1,1.0,0,1.0,0,1.0,0,1.0,0,1.0
2473,'3',76.15,32.483937,38.76,-8.453,1.045,0,76.15,0.0,1.0,0.0,0.0,1.0,1,1.0,76.15,36.024,1,1.0,0,1.0,0,1.0,0,1.0,0,1.0
2473,'4',76.15,32.483937,38.76,-8.453,1.045,0,76.15,0.0,1.0,0.0,0.0,1.0,1,1.0,76.15,10.342,1,1.0,0,1.0,0,1.0,0,1.0,0,1.0
2477,'1',38.0,10.944322,19.342,-4.218,1.0425,0,38.0,0.0,1.0,0.0,0.0,1.0,1,1.0,38.0,10.706,1,1.0,0,1.0,0,1.0,0,1.0,0,1.0
2481,'1',170.2,-0.070092089,36.253,-24.509,1.045,0,170.2,0.0,1.0,0.0,0.0,1.0,1,1.0,170.2,59.987,1,1.0,0,1.0,0,1.0,0,1.0,0,1.0
2486,'1',161.21614,84.687298,114.627,-24.997,1.0675,0,225.2,0.0,1.0,0.0,0.0,1.0,1,1.0,225.2,101.015,1,1.0,0,1.0,0,1.0,0,1.0,0,1.0
2487,'1',84.723,104.964,114.627,-24.997,1.0276543,0,225.2,0.0,1.0,0.0,0.0,1.0,0,1.0,225.2,67.765,1,1.0,0,1.0,0,1.0,0,1.0,0,1.0
2488,'1',156.17514,110.16515,114.627,-24.997,1.0675,0,225.2,0.0,1.0,0.0,0.0,1.0,1,1.0,225.2,80.164,1,1.0,0,1.0,0,1.0,0,1.0,0,1.0
2493,'1',150.0,13.788077,31.95,-21.6,1.0445,0,150.0,0.0,1.0,0.0,0.0,1.0,1,1.0,150.0,53.398,1,1.0,0,1.0,0,1.0,0,1.0,0,1.0
2499,'1',180.0,-25.43143,38.34,-25.92,1.0414179,0,180.0,0.0,1.0,0.0,0.0,1.0,1,1.0,180.0,54.851,1,1.0,0,1.0,0,1.0,0,1.0,0,1.0
2500,'1',9.0,1.917,1.917,-1.296,1.0344264,0,9.0,0.0,1.0,0.0,0.0,1.0,1,1.0,9.0,2.266,1,1.0,0,1.0,0,1.0,0,1.0,0,1.0
2506,'1',161.4,37.760787,82.153,-17.915,1.047,0,161.4,0.0,1.0,0.0,0.0,1.0,1,1.0,161.4,78.585,1,1.0,0,1.0,0,1.0,0,1.0,0,1.0
2507,'1',140.02323,25.493294,82.153,-17.915,1.047,0,161.4,0.0,1.0,0.0,0.0,1.0,1,1.0,161.4,52.405,1,1.0,0,1.0,0,1.0,0,1.0,0,1.0
2508,'1',144.29023,47.676311,82.153,-17.915,1.0515,0,161.4,0.0,1.0,0.0,0.0,1.0,1,1.0,161.4,51.825,1,1.0,0,1.0,0,1.0,0,1.0,0,1.0
2509,'1',153.77023,33.376233,82.153,-17.915,1.047,0,161.4,0.0,1.0,0.0,0.0,1.0,1,1.0,161.4,60.739,1,1.0,0,1.0,0,1.0,0,1.0,0,1.0
2510,'1',147.87623,26.195481,82.153,-17.915,1.047,0,161.4,0.0,1.0,0.0,0.0,1.0,1,1.0,161.4,74.24,1,1.0,0,1.0,0,1.0,0,1.0,0,1.0
2515,'1',101.05636,20.326174,104.973,-22.892,1.054,0,206.23,0.0,1.0,0.0,0.0,1.0,1,1.0,206.233,100.441,1,1.0,0,1.0,0,1.0,0,1.0,0,1.0
2516,'1',91.490358,20.06409,104.973,-22.892,1.054,0,206.23,0.0,1.0,0.0,0.0,1.0,1,1.0,206.233,90.875,1,1.0,0,1.0,0,1.0,0,1.0,0,1.0
2517,'1',149.65751,26.24221,104.973,-22.892,1.054,0,206.23,0.0,1.0,0.0,0.0,1.0,1,1.0,206.233,96.392,1,1.0,0,1.0,0,1.0,0,1.0,0,1.0
2521,'1',67.6,8.0586058,14.399,-9.734,1.054,0,67.6,0.0,1.0,0.0,0.0,1.0,1,1.0,67.6,10.419,1,1.0,0,1.0,0,1.0,0,1.0,0,1.0
2526,'1',151.21749,5.6398767,78.895,-17.205,1.045,0,155.0,0.0,1.0,0.0,0.0,1.0,1,1.0,155.0,50.297,1,1.0,0,1.0,0,1.0,0,1.0,0,1.0
2527,'1',74.53549,1.6600739,78.895,-17.205,1.045,0,155.0,0.0,1.0,0.0,0.0,1.0,1,1.0,155.0,20.217,1,1.0,0,1.0,0,1.0,0,1.0,0,1.0
2531,'1',30.0,0.0,0.0,0.0,1.0544177,0,30.0,0.0,1.0,0.0,0.0,1.0,1,1.0,30.0,3.39,1,1.0,0,1.0,0,1.0,0,1.0,0,1.0
2531,'2',1.4,0.0,0.0,0.0,1.0544177,0,1.4,0.0,1.0,0.0,0.0,1.0,1,1.0,1.4,0.549,1,1.0,0,1.0,0,1.0,0,1.0,0,1.0
2536,'1',59.0,22.694266,30.031,-6.549,1.065,0,59.0,0.0,1.0,0.0,0.0,1.0,1,1.0,59.0,24.736,1,1.0,0,1.0,0,1.0,0,1.0,0,1.0
2537,'1',59.0,14.749263,30.031,-6.549,1.065,0,59.0,0.0,1.0,0.0,0.0,1.0,1,1.0,59.0,12.681,1,1.0,0,1.0,0,1.0,0,1.0,0,1.0
2538,'1',59.0,14.863773,30.031,-6.549,1.065,0,59.0,0.0,1.0,0.0,0.0,1.0,1,1.0,59.0,17.743,1,1.0,0,1.0,0,1.0,0,1.0,0,1.0
2539,'1',59.0,19.841563,30.031,-6.549,1.065,0,59.0,0.0,1.0,0.0,0.0,1.0,1,1.0,59.0,26.511,1,1.0,0,1.0,0,1.0,0,1.0,0,1.0
2544,'1',67.075,0.0,81.364,-21.301,1.0395,0,174.6,0.0,1.0,0.0,0.0,1.0,0,1.0,174.6,67.075,1,1.0,0,1.0,0,1.0,0,1.0,0,1.0
2545,'1',42.259,0.0,81.364,-21.301,1.0395,0,174.6,0.0,1.0,0.0,0.0,1.0,0,1.0,174.6,42.259,1,1.0,0,1.0,0,1.0,0,1.0,0,1.0
2548,'1',10.772049,-3.097,14.201,-3.097,1.0533079,0,27.9,0.0,1.0,0.0,0.0,1.0,1,1.0,27.9,6.386,1,1.0,0,1.0,0,1.0,0,1.0,0,1.0
2549,'1',8.4640492,-3.097,14.201,-3.097,1.0559303,0,27.9,0.0,1.0,0.0,0.0,1.0,1,1.0,27.9,3.501,1,1.0,0,1.0,0,1.0,0,1.0,0,1.0
2549,'2',16.202449,-3.097,14.201,-3.097,1.0559303,0,27.9,0.0,1.0,0.0,0.0,1.0,1,1.0,27.9,13.174,1,1.0,0,1.0,0,1.0,0,1.0,0,1.0
2549,'3',13.262449,-3.097,14.201,-3.097,1.0559303,0,27.9,0.0,1.0,0.0,0.0,1.0,1,1.0,27.9,9.499,1,1.0,0,1.0,0,1.0,0,1.0,0,1.0
2549,'4',14.880049,-3.097,14.201,-3.097,1.0559303,0,27.9,0.0,1.0,0.0,0.0,1.0,1,1.0,27.9,11.521,1,1.0,0,1.0,0,1.0,0,1.0,0,1.0
2549,'5',14.072049,-3.097,14.201,-3.097,1.0559303,0,27.9,0.0,1.0,0.0,0.0,1.0,1,1.0,27.9,10.511,1,1.0,0,1.0,0,1.0,0,1.0,0,1.0
2554,'1',104.98906,15.960926,67.137,-14.641,1.0585,0,131.9,0.0,1.0,0.0,0.0,1.0,1,1.0,131.9,46.727,1,1.0,0,1.0,0,1.0,0,1.0,0,1.0
2555,'1',131.9,24.969332,67.137,-14.641,1.0585,0,131.9,0.0,1.0,0.0,0.0,1.0,1,1.0,131.9,65.353,1,1.0,0,1.0,0,1.0,0,1.0,0,1.0
2556,'1',82.277058,17.83574,67.137,-14.641,1.0585,0,131.9,0.0,1.0,0.0,0.0,1.0,1,1.0,131.9,27.798,1,1.0,0,1.0,0,1.0,0,1.0,0,1.0
2557,'1',64.831058,18.250202,67.137,-14.641,1.0585,0,131.9,0.0,1.0,0.0,0.0,1.0,1,1.0,131.9,32.76,1,1.0,0,1.0,0,1.0,0,1.0,0,1.0
2563,'1',542.749,441.919,447.12,-99.63,0.9754386,0,1215.0,0.0,1.0,0.0,0.0,1.0,0,1.0,1215.0,542.749,1,1.0,0,1.0,0,1.0,0,1.0,0,1.0
2564,'1',457.1,447.12,447.12,-99.63,0.9754386,0,1215.0,0.0,1.0,0.0,0.0,1.0,0,1.0,1215.0,196.854,1,1.0,0,1.0,0,1.0,0,1.0,0,1.0
2567,'1',72.0,-7.992,36.648,-7.992,1.0370256,0,72.0,0.0,1.0,0.0,0.0,1.0,1,1.0,72.0,24.623,1,1.0,0,1.0,0,1.0,0,1.0,0,1.0
2567,'2',72.0,-7.992,36.648,-7.992,1.0370256,0,72.0,0.0,1.0,0.0,0.0,1.0,1,1.0,72.0,32.496,1,1.0,0,1.0,0,1.0,0,1.0,0,1.0
2567,'3',72.0,-7.992,36.648,-7.992,1.0370256,0,72.0,0.0,1.0,0.0,0.0,1.0,1,1.0,72.0,8.594,1,1.0,0,1.0,0,1.0,0,1.0,0,1.0
2567,'4',72.0,-7.992,36.648,-7.992,1.0370256,0,72.0,0.0,1.0,0.0,0.0,1.0,1,1.0,72.0,20.906,1,1.0,0,1.0,0,1.0,0,1.0,0,1.0
2567,'5',72.0,-7.992,36.648,-7.992,1.0370256,0,72.0,0.0,1.0,0.0,0.0,1.0,1,1.0,72.0,30.986,1,1.0,0,1.0,0,1.0,0,1.0,0,1.0
2567,'6',72.0,-7.992,36.648,-7.992,1.0370256,0,72.0,0.0,1.0,0.0,0.0,1.0,1,1.0,72.0,20.543,1,1.0,0,1.0,0,1.0,0,1.0,0,1.0
2573,'1',156.02391,-34.963784,59.214,-40.032,1.036,0,278.0,0.0,1.0,0.0,0.0,1.0,1,1.0,278.0,124.493,1,1.0,0,1.0,0,1.0,0,1.0,0,1.0
2578,'1',150.0,-13.454094,31.95,-21.6,1.04,0,150.0,0.0,1.0,0.0,0.0,1.0,1,1.0,150.0,35.937,1,1.0,0,1.0,0,1.0,0,1.0,0,1.0
2583,'1',162.58,59.105,165.527,-36.097,1.0385,0,325.2,0.0,1.0,0.0,0.0,1.0,0,1.0,325.2,162.58,1,1.0,0,1.0,0,1.0,0,1.0,0,1.0
2584,'1',66.433,76.659,165.527,-36.097,1.0385,0,325.2,0.0,1.0,0.0,0.0,1.0,0,1.0,325.2,66.433,1,1.0,0,1.0,0,1.0,0,1.0,0,1.0
2588,'1',232.5,-9.4648999,49.523,-33.48,1.04,0,232.5,0.0,1.0,0.0,0.0,1.0,1,1.0,232.5,56.736,1,1.0,0,1.0,0,1.0,0,1.0,0,1.0
2591,'1',80.5,-11.098953,17.146,-11.592,1.0495944,0,80.5,0.0,1.0,0.0,0.0,1.0,1,1.0,80.5,25.199,1,1.0,0,1.0,0,1.0,0,1.0,0,1.0
2594,'1',79.6,-0.058238299,16.955,-11.462,1.0623432,0,79.6,0.0,1.0,0.0,0.0,1.0,1,1.0,79.6,29.942,1,1.0,0,1.0,0,1.0,0,1.0,0,1.0
2598,'1',9.4688228,-2.248,10.307,-2.248,1.0538773,0,20.25,0.0,1.0,0.0,0.0,1.0,1,1.0,20.25,6.698,1,1.0,0,1.0,0,1.0,0,1.0,0,1.0
2598,'2',7.4408228,-2.248,10.307,-2.248,1.0538773,0,20.25,0.0,1.0,0.0,0.0,1.0,1,1.0,20.25,4.163,1,1.0,0,1.0,0,1.0,0,1.0,0,1.0
2604,'1',100.85757,0.4860664,42.6,-28.8,1.048,0,200.0,0.0,1.0,0.0,0.0,1.0,1,1.0,200.0,75.326,1,1.0,0,1.0,0,1.0,0,1.0,0,1.0
2611,'1',111.827,47.81,199.426,-43.49,0.98946853,0,391.8,0.0,1.0,0.0,0.0,1.0,0,1.0,391.8,111.827,1,1.0,0,1.0,0,1.0,0,1.0,0,1.0
2612,'1',188.945,66.451,199.426,-43.49,0.98368217,0,391.8,0.0,1.0,0.0,0.0,1.0,0,1.0,391.8,188.945,1,1.0,0,1.0,0,1.0,0,1.0,0,1.0
2613,'1',101.235,54.641,199.426,-43.49,0.98946853,0,391.8,0.0,1.0,0.0,0.0,1.0,0,1.0,391.8,101.235,1,1.0,0,1.0,0,1.0,0,1.0,0,1.0
2617,'1',22.0,-1.0389382,8.448,-1.078,1.053065,0,22.0,0.0,1.0,0.0,0.0,1.0,1,1.0,22.0,2.376,1,1.0,0,1.0,0,1.0,0,1.0,0,1.0
2617,'2',22.0,-1.0389382,8.448,-1.078,1.053065,0,22.0,0.0,1.0,0.0,0.0,1.0,1,1.0,22.0,6.487,1,1.0,0,1.0,0,1.0,0,1.0,0,1.0
2623,'1',227.696,0.0,307.56,-80.52,1.0431499,0,660.0,0.0,1.0,0.0,0.0,1.0,0,1.0,660.0,227.696,1,1.0,0,1.0,0,1.0,0,1.0,0,1.0
2624,'1',113.593,0.0,307.56,-80.52,1.0431499,0,660.0,0.0,1.0,0.0,0.0,1.0,0,1.0,660.0,113.593,1,1.0,0,1.0,0,1.0,0,1.0,0,1.0
2625,'1',177.006,0.0,307.56,-80.52,1.0431499,0,660.0,0.0,1.0,0.0,0.0,1.0,0,1.0,660.0,177.006,1,1.0,0,1.0,0,1.0,0,1.0,0,1.0
2630,'1',235.17862,-39.58033,61.472,-41.558,1.0427233,0,288.6,0.0,1.0,0.0,0.0,1.0,1,1.0,288.6,123.187,1,1.0,0,1.0,0,1.0,0,1.0,0,1.0
2635,'1',241.0,41.286654,51.333,-34.704,1.058,0,241.0,0.0,1.0,0.0,0.0,1.0,1,1.0,241.0,92.743,1,1.0,0,1.0,0,1.0,0,1.0,0,1.0
2638,'1',17.71545,-8.467,12.524,-8.467,1.0468052,0,58.8,0.0,1.0,0.0,0.0,1.0,1,1.0,58.8,7.225,1,1.0,0,1.0,0,1.0,0,1.0,0,1.0
2644,'1',52.050414,35.029938,35.278,-23.85,1.0154833,0,165.63,0.0,1.0,0.0,0.0,1.0,1,1.0,165.625,23.039,1,1.0,0,1.0,0,1.0,0,1.0,0,1.0
2645,'1',80.631214,35.222639,35.278,-23.85,1.0123834,0,165.63,0.0,1.0,0.0,0.0,1.0,1,1.0,165.625,58.765,1,1.0,0,1.0,0,1.0,0,1.0,0,1.0
2646,'1',69.408014,35.156946,35.278,-23.85,1.011849,0,165.63,0.0,1.0,0.0,0.0,1.0,1,1.0,165.625,44.736,1,1.0,0,1.0,0,1.0,0,1.0,0,1.0
2647,'1',48.823214,-23.85,35.278,-23.85,1.0438471,0,165.63,0.0,1.0,0.0,0.0,1.0,1,1.0,165.625,19.005,1,1.0,0,1.0,0,1.0,0,1.0,0,1.0
2651,'1',62.853133,-17.564,80.541,-17.564,1.0446743,0,158.23,0.0,1.0,0.0,0.0,1.0,1,1.0,158.233,38.418,1,1.0,0,1.0,0,1.0,0,1.0,0,1.0
2652,'1',85.511533,-17.564,80.541,-17.564,1.0499305,0,158.23,0.0,1.0,0.0,0.0,1.0,1,1.0,158.233,66.741,1,1.0,0,1.0,0,1.0,0,1.0,0,1.0
2653,'1',51.796333,-17.564,80.541,-17.564,1.0438598,0,158.23,0.0,1.0,0.0,0.0,1.0,1,1.0,158.233,24.597,1,1.0,0,1.0,0,1.0,0,1.0,0,1.0
2657,'1',126.5,-18.216,26.945,-18.216,1.0312077,0,126.5,0.0,1.0,0.0,0.0,1.0,1,1.0,126.5,50.669,1,1.0,0,1.0,0,1.0,0,1.0,0,1.0
2662,'1',117.08222,-13.365185,41.961,-28.368,1.0405,0,197.0,0.0,1.0,0.0,0.0,1.0,1,1.0,197.0,96.368,1,1.0,0,1.0,0,1.0,0,1.0,0,1.0
2665,'1',53.960924,-11.261,16.657,-11.261,1.0661242,0,78.2,0.0,1.0,0.0,0.0,1.0,1,1.0,78.2,27.384,1,1.0,0,1.0,0,1.0,0,1.0,0,1.0
2669,'1',86.698341,17.951943,93.537,-20.398,1.0585,0,183.77,0.0,1.0,0.0,0.0,1.0,1,1.0,183.767,86.15,1,1.0,0,1.0,0,1.0,0,1.0,0,1.0
2670,'1',144.03875,36.632195,93.537,-20.398,1.0585,0,183.77,0.0,1.0,0.0,0.0,1.0,1,1.0,183.767,72.086,1,1.0,0,1.0,0,1.0,0,1.0,0,1.0
2671,'1',95.795029,23.864922,93.537,-20.398,1.0585,0,183.77,0.0,1.0,0.0,0.0,1.0,1,1.0,183.767,21.216,1,1.0,0,1.0,0,1.0,0,1.0,0,1.0
2677,'1',67.839451,32.791137,94.844,-20.683,1.0525,0,186.33,0.0,1.0,0.0,0.0,1.0,1,1.0,186.333,29.779,1,1.0,0,1.0,0,1.0,0,1.0,0,1.0
2678,'1',92.758779,42.906626,94.844,-20.683,1.0525,0,186.33,0.0,1.0,0.0,0.0,1.0,1,1.0,186.333,88.281,1,1.0,0,1.0,0,1.0,0,1.0,0,1.0
2679,'1',97.973451,47.669782,94.844,-20.683,1.0525,0,186.33,0.0,1.0,0.0,0.0,1.0,1,1.0,186.333,69.424,1,1.0,0,1.0,0,1.0,0,1.0,0,1.0
2683,'1',283.2,-40.781,60.322,-40.781,1.0324919,0,283.2,0.0,1.0,0.0,0.0,1.0,1,1.0,283.2,79.964,1,1.0,0,1.0,0,1.0,0,1.0,0,1.0
2688,'1',203.0,28.319178,43.239,-29.232,1.0045,0,203.0,0.0,1.0,0.0,0.0,1.0,1,1.0,203.0,98.9,1,1.0,0,1.0,0,1.0,0,1.0,0,1.0
2691,'1',43.0,12.808931,21.887,-4.773,1.0385,0,43.0,0.0,1.0,0.0,0.0,1.0,1,1.0,43.0,5.001,1,1.0,0,1.0,0,1.0,0,1.0,0,1.0
2692,'1',25.913905,-4.1885022,21.887,-4.773,1.042,0,43.0,0.0,1.0,0.0,0.0,1.0,1,1.0,43.0,21.482,1,1.0,0,1.0,0,1.0,0,1.0,0,1.0
...
0 / END OF GENERATOR DATA BEGIN BRANCH DATA
1,10,'1',0.0087,0.04508,0.03012,161.0,161.0,161.0,0.0,0.0,0.0,0.0,1,1,0.0,1,1.0,0,1.0,0,1.0,0,1.0
2,5,'1',0.04168,0.15499,0.06378,172.6,172.6,172.6,0.0,0.0,0.0,0.0,1,1,0.0,1,1.0,0,1.0,0,1.0,0,1.0
2,2971,'1',0.0113,0.0609,0.01935,179.1,179.1,179.1,0.0,0.0,0.0,0.0,1,1,0.0,1,1.0,0,1.0,0,1.0,0,1.0
3,32,'1',0.02285,0.1258,0.02312,129.8,129.8,129.8,0.0,0.0,0.0,0.0,1,1,0.0,1,1.0,0,1.0,0,1.0,0,1.0
4,5,'1',0.00021,0.0011,0.0,99999.0,99999.0,99999.0,0.0,0.0,0.0,0.0,1,1,0.0,1,1.0,0,1.0,0,1.0,0,1.0
5,47,'1',0.01779,0.09175,0.1489,168.8,168.8,168.8,0.0,0.0,0.0,0.0,1,1,0.0,1,1.0,0,1.0,0,1.0,0,1.0
6,7,'1',0.01146,0.06161,0.01521,118.9,118.9,118.9,0.0,0.0,0.0,0.0,1,1,0.0,1,1.0,0,1.0,0,1.0,0,1.0
6,3839,'1',0.06146,0.23913,0.02814,132.4,132.4,132.4,0.0,0.0,0.0,0.0,1,1,0.0,1,1.0,0,1.0,0,1.0,0,1.0
7,3142,'1',0.01943,0.08611,0.03098,154.4,154.4,154.4,0.0,0.0,0.0,0.0,1,1,0.0,1,1.0,0,1.0,0,1.0,0,1.0
8,9,'1',0.04045,0.19503,0.02577,143.7,143.7,143.7,0.0,0.0,0.0,0.0,1,1,0.0,1,1.0,0,1.0,0,1.0,0,1.0
8,34,'1',0.03445,0.15102,0.02567,125.9,125.9,125.9,0.0,0.0,0.0,0.0,1,1,0.0,1,1.0,0,1.0,0,1.0,0,1.0
8,2798,'1',0.03757,0.171,0.015,165.0,165.0,165.0,0.0,0.0,0.0,0.0,1,1,0.0,1,1.0,0,1.0,0,1.0,0,1.0
10,11,'1',0.03459,0.13093,0.02825,179.5,179.5,179.5,0.0,0.0,0.0,0.0,1,1,0.0,1,1.0,0,1.0,0,1.0,0,1.0
12,14,'1',0.00024,0.00103,0.0,99999.0,99999.0,99999.0,0.0,0.0,0.0,0.0,1,1,0.0,1,1.0,0,1.0,0,1.0,0,1.0
12,15,'1',0.00028,0.00118,0.0,99999.0,99999.0,99999.0,0.0,0.0,0.0,0.0,1,1,0.0,1,1.0,0,1.0,0,1.0,0,1.0
13,11,'1',0.0115,0.05155,0.00995,186.6,186.6,186.6,0.0,0.0,0.0,0.0,1,1,0.0,1,1.0,0,1.0,0,1.0,0,1.0
13,25,'1',0.03053,0.12823,0.03996,170.2,170.2,170.2,0.0,0.0,0.0,0.0,1,1,0.0,1,1.0,0,1.0,0,1.0,0,1.0
15,2405,'1',0.00382,0.03136,0.07527,564.4,564.4,564.4,0.0,0.0,0.0,0.0,1,1,0.0,1,1.0,0,1.0,0,1.0,0,1.0
15,3118,'1',0.00577,0.05823,0.28363,602.8,602.8,602.8,0.0,0.0,0.0,0.0,1,1,0.0,1,1.0,0,1.0,0,1.0,0,1.0
16,18,'1',0.00029,0.00105,0.0,99999.0,99999.0,99999.0,0.0,0.0,0.0,0.0,1,1,0.0,1,1.0,0,1.0,0,1.0,0,1.0
16,19,'1',0.00021,0.00106,0.0,99999.0,99999.0,99999.0,0.0,0.0,0.0,0.0,1,1,0.0,1,1.0,0,1.0,0,1.0,0,1.0
17,70,'1',0.02482,0.12658,0.04798,148.2,148.2,148.2,0.0,0.0,0.0,0.0,1,1,0.0,1,1.0,0,1.0,0,1.0,0,1.0
19,3259,'1',0.01233,0.10016,0.25445,532.2,532.2,532.2,0.0,0.0,0.0,0.0,1,1,0.0,1,1.0,0,1.0,0,1.0,0,1.0
20,22,'1',0.00021,0.00114,0.0,99999.0,99999.0,99999.0,0.0,0.0,0.0,0.0,1,1,0.0,1,1.0,0,1.0,0,1.0,0,1.0
20,23,'1',0.00028,0.00106,0.0,99999.0,99999.0,99999.0,0.0,0.0,0.0,0.0,1,1,0.0,1,1.0,0,1.0,0,1.0,0,1.0
21,9,'1',0.0449,0.16501,0.01666,108.5,108.5,108.5,0.0,0.0,0.0,0.0,1,1,0.0,1,1.0,0,1.0,0,1.0,0,1.0
22,3615,'1',0.00793,0.06747,0.23868,597.9,597.9,597.9,0.0,0.0,0.0,0.0,1,1,0.0,1,1.0,0,1.0,0,1.0,0,1.0
24,32,'1',0.01064,0.03316,0.00869,147.4,147.4,147.4,0.0,0.0,0.0,0.0,1,1,0.0,1,1.0,0,1.0,0,1.0,0,1.0
25,24,'1',0.00921,0.03545,0.00947,146.1,146.1,146.1,0.0,0.0,0.0,0.0,1,1,0.0,1,1.0,0,1.0,0,1.0,0,1.0
25,43,'1',0.00594,0.0302,0.03786,175.1,175.1,175.1,0.0,0.0,0.0,0.0,1,1,0.0,1,1.0,0,1.0,0,1.0,0,1.0
26,2572,'1',0.0208,0.09668,0.02411,135.6,135.6,135.6,0.0,0.0,0.0,0.0,1,1,0.0,1,1.0,0,1.0,0,1.0,0,1.0
26,3467,'1',0.05134,0.25172,0.03633,160.0,160.0,160.0,0.0,0.0,0.0,0.0,1,1,0.0,1,1.0,0,1.0,0,1.0,0,1.0
27,30,'1',0.00029,0.00101,0.0,99999.0,99999.0,99999.0,0.0,0.0,0.0,0.0,1,1,0.0,1,1.0,0,1.0,0,1.0,0,1.0
27,2585,'1',0.00049,0.00859,1.20744,2730.0,2730.0,2730.0,0.0,0.0,0.0,0.0,1,1,0.0,1,1.0,0,1.0,0,1.0,0,1.0
27,3124,'1',0.001,0.01944,2.12114,2885.3,2885.3,2885.3,0.0,0.0,0.0,0.0,1,1,0.0,1,1.0,0,1.0,0,1.0,0,1.0
28,31,'1',0.0003,0.00103,0.0,99999.0,99999.0,99999.0,0.0,0.0,0.0,0.0,1,1,0.0,1,1.0,0,1.0,0,1.0,0,1.0
29,3557,'1',0.00452,0.02384,0.01438,170.8,170.8,170.8,0.0,0.0,0.0,0.0,1,1,0.0,1,1.0,0,1.0,0,1.0,0,1.0
31,65,'1',0.00329,0.03121,0.15293,513.4,513.4,513.4,0.0,0.0,0.0,0.0,1,1,0.0,1,1.0,0,1.0,0,1.0,0,1.0
31,2574,'1',0.00652,0.0629,0.18163,513.0,513.0,513.0,0.0,0.0,0.0,0.0,1,1,0.0,1,1.0,0,1.0,0,1.0,0,1.0
31,3567,'1',0.00127,0.01143,0.03245,651.5,651.5,651.5,0.0,0.0,0.0,0.0,1,1,0.0,1,1.0,0,1.0,0,1.0,0,1.0
31,3567,'2',0.00127,0.01143,0.03245,651.5,651.5,651.5,0.0,0.0,0.0,0.0,1,1,0.0,1,1.0,0,1.0,0,1.0,0,1.0
32,33,'1',0.00021,0.00116,0.0,99999.0,99999.0,99999.0,0.0,0.0,0.0,0.0,1,1,0.0,1,1.0,0,1.0,0,1.0,0,1.0
32,2282,'1',0.00716,0.03527,0.01736,178.4,178.4,178.4,0.0,0.0,0.0,0.0,1,1,0.0,1,1.0,0,1.0,0,1.0,0,1.0
34,56,'1',0.03264,0.16102,0.02997,134.9,134.9,134.9,0.0,0.0,0.0,0.0,1,1,0.0,1,1.0,0,1.0,0,1.0,0,1.0
35,36,'1',0.00024,0.00114,0.0,99999.0,99999.0,99999.0,0.0,0.0,0.0,0.0,1,1,0.0,1,1.0,0,1.0,0,1.0,0,1.0
35,62,'1',0.01883,0.10742,0.02725,115.3,115.3,115.3,0.0,0.0,0.0,0.0,1,1,0.0,1,1.0,0,1.0,0,1.0,0,1.0
37,39,'1',0.00025,0.00118,0.0,99999.0,99999.0,99999.0,0.0,0.0,0.0,0.0,1,1,0.0,1,1.0,0,1.0,0,1.0,0,1.0
37,2975,'1',0.00926,0.08957,0.19243,584.8,584.8,584.8,0.0,0.0,0.0,0.0,1,1,0.0,1,1.0,0,1.0,0,1.0,0,1.0
38,35,'1',0.01179,0.04912,0.01005,139.0,139.0,139.0,0.0,0.0,0.0,0.0,1,1,0.0,1,1.0,0,1.0,0,1.0,0,1.0
40,54,'1',0.00717,0.03214,0.01168,183.9,183.9,183.9,0.0,0.0,0.0,0.0,1,1,0.0,1,1.0,0,1.0,0,1.0,0,1.0
41,24,'1',0.00554,0.0269,0.01549,152.7,152.7,152.7,0.0,0.0,0.0,0.0,1,1,0.0,1,1.0,0,1.0,0,1.0,0,1.0
42,40,'1',0.00522,0.01499,0.00686,198.7,198.7,198.7,0.0,0.0,0.0,0.0,1,1,0.0,1,1.0,0,1.0,0,1.0,0,1.0
42,2282,'1',0.01068,0.05861,0.01552,200.1,200.1,200.1,0.0,0.0,0.0,0.0,1,1,0.0,1,1.0,0,1.0,0,1.0,0,1.0
43,41,'1',0.00246,0.01272,0.00586,168.0,168.0,168.0,0.0,0.0,0.0,0.0,1,1,0.0,1,1.0,0,1.0,0,1.0,0,1.0
43,3557,'1',0.00614,0.03023,0.00712,164.6,164.6,164.6,0.0,0.0,0.0,0.0,1,1,0.0,1,1.0,0,1.0,0,1.0,0,1.0
44,29,'1',0.00738,0.02468,0.00717,123.9,123.9,123.9,0.0,0.0,0.0,0.0,1,1,0.0,1,1.0,0,1.0,0,1.0,0,1.0
44,45,'1',0.0055,0.0265,0.0033,145.5,145.5,145.5,0.0,0.0,0.0,0.0,1,1,0.0,1,1.0,0,1.0,0,1.0,0,1.0
45,2282,'1',0.0079,0.04148,0.00396,162.4,162.4,162.4,0.0,0.0,0.0,0.0,1,1,0.0,1,1.0,0,1.0,0,1.0,0,1.0
46,38,'1',0.02563,0.14224,0.01306,169.3,169.3,169.3,0.0,0.0,0.0,0.0,1,1,0.0,1,1.0,0,1.0,0,1.0,0,1.0
48,47,'1',0.00865,0.03468,0.02152,166.3,166.3,166.3,0.0,0.0,0.0,0.0,1,1,0.0,1,1.0,0,1.0,0,1.0,0,1.0
48,71,'1',0.03201,0.12189,0.05261,176.6,176.6,176.6,0.0,0.0,0.0,0.0,1,1,0.0,1,1.0,0,1.0,0,1.0,0,1.0
49,50,'1',0.00022,0.00108,0.0,99999.0,99999.0,99999.0,0.0,0.0,0.0,0.0,1,1,0.0,1,1.0,0,1.0,0,1.0,0,1.0
50,86,'1',0.0328,0.16516,0.09333,116.2,116.2,116.2,0.0,0.0,0.0,0.0,1,1,0.0,1,1.0,0,1.0,0,1.0,0,1.0
51,59,'1',0.01464,0.04673,0.00744,114.8,114.8,114.8,0.0,0.0,0.0,0.0,1,1,0.0,1,1.0,0,1.0,0,1.0,0,1.0
52,53,'1',0.00021,0.00103,0.0,99999.0,99999.0,99999.0,0.0,0.0,0.0,0.0,1,1,0.0,1,1.0,0,1.0,0,1.0,0,1.0
53,54,'1',0.00707,0.03381,0.01158,147.3,147.3,147.3,0.0,0.0,0.0,0.0,1,1,0.0,1,1.0,0,1.0,0,1.0,0,1.0
53,59,'1',0.00623,0.0242,0.00374,121.3,121.3,121.3,0.0,0.0,0.0,0.0,1,1,0.0,1,1.0,0,1.0,0,1.0,0,1.0
54,51,'1',0.01384,0.04606,0.00524,145.7,145.7,145.7,0.0,0.0,0.0,0.0,1,1,0.0,1,1.0,0,1.0,0,1.0,0,1.0
54,55,'1',0.00027,0.00106,0.0,99999.0,99999.0,99999.0,0.0,0.0,0.0,0.0,1,1,0.0,1,1.0,0,1.0,0,1.0,0,1.0
56,46,'1',0.04103,0.16139,0.02102,159.3,159.3,159.3,0.0,0.0,0.0,0.0,1,1,0.0,1,1.0,0,1.0,0,1.0,0,1.0
56,57,'1',0.00022,0.00118,0.0,99999.0,99999.0,99999.0,0.0,0.0,0.0,0.0,1,1,0.0,1,1.0,0,1.0,0,1.0,0,1.0
56,96,'1',0.01994,0.09722,0.00985,136.4,136.4,136.4,0.0,0.0,0.0,0.0,1,1,0.0,1,1.0,0,1.0,0,1.0,0,1.0
58,64,'1',0.015,0.07401,0.00725,134.0,134.0,134.0,0.0,0.0,0.0,0.0,1,1,0.0,1,1.0,0,1.0,0,1.0,0,1.0
59,58,'1',0.00557,0.02601,0.00571,109.3,109.3,109.3,0.0,0.0,0.0,0.0,1,1,0.0,1,1.0,0,1.0,0,1.0,0,1.0
60,61,'1',0.0002,0.00106,0.0,99999.0,99999.0,99999.0,0.0,0.0,0.0,0.0,1,1,0.0,1,1.0,0,1.0,0,1.0,0,1.0
60,67,'1',0.00441,0.02151,0.01126,144.1,144.1,144.1,0.0,0.0,0.0,0.0,1,1,0.0,1,1.0,0,1.0,0,1.0,0,1.0
60,77,'1',0.00675,0.04224,0.01573,169.1,169.1,169.1,0.0,0.0,0.0,0.0,1,1,0.0,1,1.0,0,1.0,0,1.0,0,1.0
62,47,'1',0.0085,0.05417,0.06179,188.6,188.6,188.6,0.0,0.0,0.0,0.0,1,1,0.0,1,1.0,0,1.0,0,1.0,0,1.0
62,85,'1',0.01218,0.06348,0.01115,166.7,166.7,166.7,0.0,0.0,0.0,0.0,1,1,0.0,1,1.0,0,1.0,0,1.0,0,1.0
63,65,'1',0.0003,0.00111,0.0,99999.0,99999.0,99999.0,0.0,0.0,0.0,0.0,1,1,0.0,1,1.0,0,1.0,0,1.0,0,1.0
63,66,'1',0.0003,0.00116,0.0,99999.0,99999.0,99999.0,0.0,0.0,0.0,0.0,1,1,0.0,1,1.0,0,1.0,0,1.0,0,1.0
64,53,'1',0.00517,0.02427,0.00753,154.1,154.1,154.1,0.0,0.0,0.0,0.0,1,1,0.0,1,1.0,0,1.0,0,1.0,0,1.0
64,59,'1',0.00458,0.0236,0.00997,156.3,156.3,156.3,0.0,0.0,0.0,0.0,1,1,0.0,1,1.0,0,1.0,0,1.0,0,1.0
64,67,'1',0.00668,0.0258,0.00494,138.5,138.5,138.5,0.0,0.0,0.0,0.0,1,1,0.0,1,1.0,0,1.0,0,1.0,0,1.0
68,69,'1',0.00026,0.00104,0.0,99999.0,99999.0,99999.0,0.0,0.0,0.0,0.0,1,1,0.0,1,1.0,0,1.0,0,1.0,0,1.0
68,3394,'1',0.00964,0.03811,0.00673,120.4,120.4,120.4,0.0,0.0,0.0,0.0,1,1,0.0,1,1.0,0,1.0,0,1.0,0,1.0
70,68,'1',0.00842,0.04011,0.02742,161.6,161.6,161.6,0.0,0.0,0.0,0.0,1,1,0.0,1,1.0,0,1.0,0,1.0,0,1.0
70,2713,'1',0.01477,0.0596,0.01854,162.4,162.4,162.4,0.0,0.0,0.0,0.0,1,1,0.0,1,1.0,0,1.0,0,1.0,0,1.0
72,74,'1',0.00023,0.00109,0.0,99999.0,99999.0,99999.0,0.0,0.0,0.0,0.0,1,1,0.0,1,1.0,0,1.0,0,1.0,0,1.0
72,75,'1',0.00027,0.00118,0.0,99999.0,99999.0,99999.0,0.0,0.0,0.0,0.0,1,1,0.0,1,1.0,0,1.0,0,1.0,0,1.0
73,71,'1',0.0162,0.0528,0.0087,182.0,182.0,182.0,0.0,0.0,0.0,0.0,1,1,0.0,1,1.0,0,1.0,0,1.0,0,1.0
75,3713,'1',0.00519,0.04788,0.20757,615.4,615.4,615.4,0.0,0.0,0.0,0.0,1,1,0.0,1,1.0,0,1.0,0,1.0,0,1.0
76,58,'1',0.01303,0.04777,0.02234,147.7,147.7,147.7,0.0,0.0,0.0,0.0,1,1,0.0,1,1.0,0,1.0,0,1.0,0,1.0
76,77,'1',0.01118,0.05743,0.0095,160.5,160.5,160.5,0.0,0.0,0.0,0.0,1,1,0.0,1,1.0,0,1.0,0,1.0,0,1.0
77,2282,'1',0.01741,0.07702,0.0321,199.3,199.3,199.3,0.0,0.0,0.0,0.0,1,1,0.0,1,1.0,0,1.0,0,1.0,0,1.0
78,68,'1',0.03304,0.12753,0.01506,148.5,148.5,148.5,0.0,0.0,0.0,0.0,1,1,0.0,1,1.0,0,1.0,0,1.0,0,1.0
...